geometry optimzed in LAMMPS
_audit_creation_date              2020-11-30 
_audit_creation_method            'lammps2cif' 
_symmetry_space_group_name_H-M    'P1' 
_symmetry_Int_Tables_number       1 
_symmetry_cell_setting            triclinic 
loop_ 
_symmetry_equiv_pos_as_xyz 
  x,y,z 
_cell_length_a                    31.96022642 
_cell_length_b                    31.959899172274618 
_cell_length_c                    77.38970117211821 
_cell_angle_alpha                 89.92303265587364 
_cell_angle_beta                  90.03880150026352 
_cell_angle_gamma                 90.05758605317423 
loop_ 
_atom_site_label 
_atom_site_type_symbol 
_atom_site_fract_x 
_atom_site_fract_y 
_atom_site_fract_z 
_atom_site_charge 
O1          O  0.78592680  0.70773150  0.76709901    -0.71900
O2          O  0.77156459  0.79341909  0.72975044    -0.72900
O3          O  0.78835223  0.79575525  0.76586353    -0.61500
O4          O  0.76921250  0.70506751  0.73111517    -0.69900
O5          O  0.70112806  0.70646895  0.73614727    -0.69500
O6          O  0.72030027  0.79786376  0.77093243    -0.60700
O7          O  0.70345329  0.79533467  0.73467672    -0.73200
O8          O  0.71793960  0.70956668  0.77234161    -0.72000
Cu9        Cu  0.78103661  0.75041859  0.74824689     1.04600
Cu10       Cu  0.70830039  0.75240374  0.75369342     1.04300
C11         C  0.75439147  0.69551480  0.77589400     0.94300
C12         C  0.73533167  0.80786175  0.72613013     0.93400
C13         C  0.75735945  0.81075366  0.77420580     0.85600
C14         C  0.73241481  0.69134390  0.72800404     0.91900
O15         O  0.29110857  0.79091043  0.73361290    -0.71900
O16         O  0.27595860  0.70884848  0.77192732    -0.72900
O17         O  0.28942107  0.70222042  0.73581791    -0.61500
O18         O  0.27746573  0.79674128  0.76962039    -0.69900
O19         O  0.20897453  0.79723273  0.76552513    -0.69500
O20         O  0.22095482  0.70269514  0.73162715    -0.60700
O21         O  0.20744430  0.70905240  0.76780733    -0.73200
O22         O  0.22262296  0.79148501  0.72944913    -0.72000
Cu23       Cu  0.28583910  0.74960702  0.75286807     1.04600
Cu24       Cu  0.21262202  0.75008502  0.74840706     1.04300
C25         C  0.25913169  0.80482442  0.72557452     0.94300
C26         C  0.23945771  0.69624538  0.77614513     0.93400
C27         C  0.25701434  0.68737935  0.72830889     0.85600
C28         C  0.24140403  0.81177932  0.77310322     0.91900
O29         O  0.04920461  0.53765752  0.51874225    -0.71900
O30         O  0.95200323  0.54220230  0.48551903    -0.72900
O31         O  0.96027687  0.53352964  0.52209870    -0.61500
O32         O  0.04078567  0.54609428  0.48250157    -0.69900
O33         O  0.04081541  0.47716393  0.47903640    -0.69500
O34         O  0.96271064  0.46469844  0.51941091    -0.60700
O35         O  0.95269302  0.47329268  0.48291946    -0.73200
O36         O  0.05133739  0.46902088  0.51532487    -0.72000
Cu37       Cu  0.00037741  0.54225813  0.50232051     1.04600
Cu38       Cu  0.00194287  0.46867610  0.49910421     1.04300
C39         C  0.06609556  0.50235999  0.52215880     0.94300
C40         C  0.93718099  0.50877858  0.47877921     0.93400
C41         C  0.94873879  0.49715594  0.52711834     0.85600
C42         C  0.05357623  0.51348718  0.47457696     0.91900
N43         N  0.72372684  0.54205015  0.64691317    -0.26200
N44         N  0.69198432  0.52254551  0.65429909    -0.34100
C45         C  0.68276066  0.54159883  0.66932380     0.02100
C46         C  0.71040473  0.57455219  0.67155936     0.08100
C47         C  0.73561571  0.57403096  0.65699975    -0.05000
H48         H  0.65929077  0.53077678  0.67835536     0.08800
H49         H  0.76163931  0.59456535  0.65415536     0.10000
Cu50       Cu  0.66653709  0.46850438  0.64424051     0.44200
Cu51       Cu  0.75311437  0.52126668  0.62465064     0.42000
Cu52       Cu  0.72092051  0.42160602  0.60716123     0.43900
N53         N  0.64797752  0.41417576  0.63208558    -0.33600
N54         N  0.66737654  0.39668816  0.61882702    -0.27900
C55         C  0.64600007  0.36216107  0.61413447    -0.04000
C56         C  0.61157215  0.35812892  0.62489373     0.08200
C57         C  0.61398444  0.39149025  0.63613629     0.02000
H58         H  0.65442974  0.34190100  0.60350683     0.09700
H59         H  0.59236821  0.39898156  0.64642901     0.08800
N60         N  0.77143032  0.45608697  0.59751684    -0.35100
N61         N  0.78247508  0.49285377  0.60386107    -0.27300
C62         C  0.81501615  0.50791817  0.59476740    -0.02500
C63         C  0.82521953  0.47940366  0.58196780     0.06100
C64         C  0.79687235  0.44680575  0.58417099     0.04200
H65         H  0.83023017  0.53746903  0.59740696     0.09300
H66         H  0.79411445  0.41892384  0.57634561     0.08200
N67         N  0.26168226  0.52849293  0.64998271    -0.26200
N68         N  0.29544338  0.51171370  0.65702173    -0.34100
C69         C  0.30296643  0.53058758  0.67226930     0.02100
C70         C  0.27224596  0.56047148  0.67503125     0.08100
C71         C  0.24660968  0.55810152  0.66062334    -0.05000
H72         H  0.32888212  0.52304989  0.68071165     0.08800
H73         H  0.21980776  0.57756656  0.65775948     0.10000
Cu74       Cu  0.32939803  0.46372229  0.64545821     0.44200
Cu75       Cu  0.23929921  0.51281820  0.62561572     0.42000
Cu76       Cu  0.29228799  0.42836631  0.60344153     0.43900
N77         N  0.35485411  0.41314195  0.63217721    -0.33600
N78         N  0.34068490  0.39946348  0.61712903    -0.27900
C79         C  0.36323256  0.36578420  0.61235444    -0.04000
C80         C  0.39314423  0.35817055  0.62491936     0.08200
C81         C  0.38698182  0.38881733  0.63726224     0.02000
H82         H  0.35876952  0.34861092  0.60045751     0.09700
H83         H  0.40463015  0.39314909  0.64905931     0.08800
N84         N  0.24422493  0.46373430  0.59241168    -0.35100
N85         N  0.22511232  0.49471344  0.60049794    -0.27300
C86         C  0.19544953  0.51077759  0.59005883    -0.02500
C87         C  0.19557284  0.48875429  0.57464118     0.06100
C88         C  0.22699315  0.45916011  0.57664142     0.04200
H89         H  0.17426955  0.53562927  0.59370097     0.09300
H90         H  0.23643685  0.43568792  0.56737950     0.08200
O91         O  0.04834291  0.95543281  0.48399222    -0.71900
O92         O  0.95761780  0.96658060  0.51965014    -0.72900
O93         O  0.95915365  0.95367996  0.48331207    -0.61500
O94         O  0.04636705  0.96786959  0.52037635    -0.69900
O95         O  0.04608816  0.03640392  0.51642887    -0.69500
O96         O  0.95785522  0.02227656  0.47961276    -0.60700
O97         O  0.95741211  0.03526668  0.51586939    -0.73200
O98         O  0.04646760  0.02409759  0.48000880    -0.72000
Cu99       Cu  0.00291787  0.95849472  0.50197820     1.04600
Cu100      Cu  0.00194707  0.03184658  0.49783321     1.04300
C101        C  0.06152107  0.98825930  0.47625266     0.94300
C102        C  0.94326096  0.00273753  0.52346017     0.93400
C103        C  0.94444918  0.98583481  0.47557801     0.85600
C104        C  0.06009287  0.00418544  0.52436123     0.91900
N105        N  0.26918026  0.96621455  0.64830139    -0.26200
N106        N  0.29995361  0.98500212  0.65664352    -0.34100
C107        C  0.30606936  0.96530257  0.67182589     0.02100
C108        C  0.27765886  0.93253019  0.67300070     0.08100
C109        C  0.25496886  0.93417544  0.65780688    -0.05000
H110        H  0.32934012  0.97433983  0.68126695     0.08800
H111        H  0.23047084  0.91307793  0.65367244     0.10000
Cu112      Cu  0.33204487  0.03569201  0.64639828     0.44200
Cu113      Cu  0.24668630  0.98412578  0.62449178     0.42000
Cu114      Cu  0.29147848  0.07291862  0.60429826     0.43900
N115        N  0.35664388  0.08545484  0.63245054    -0.33600
N116        N  0.34167138  0.09909644  0.61750530    -0.27900
C117        C  0.36421557  0.13237125  0.61234133    -0.04000
C118        C  0.39479337  0.13983387  0.62454471     0.08200
C119        C  0.38932972  0.10951152  0.63707606     0.02000
H120        H  0.35890572  0.14966870  0.60051950     0.09700
H121        H  0.40757205  0.10540942  0.64873733     0.08800
N122        N  0.24032486  0.04146497  0.59401196    -0.35100
N123        N  0.22417398  0.00819520  0.60160957    -0.27300
C124        C  0.19136931  0.99447815  0.59237209    -0.02500
C125        C  0.18641327  0.02033523  0.57814246     0.06100
C126        C  0.21808386  0.04992210  0.57963824     0.04200
H127        H  0.17209356  0.96806079  0.59599940     0.09300
H128        H  0.22482767  0.07539635  0.57085509     0.08200
N129        N  0.72830814  0.95767769  0.64431591    -0.26200
N130        N  0.69741833  0.97724972  0.65222283    -0.34100
C131        C  0.68964605  0.95798583  0.66736253     0.02100
C132        C  0.71725060  0.92480418  0.66910010     0.08100
C133        C  0.74121140  0.92559757  0.65419674    -0.05000
H134        H  0.66653348  0.96822984  0.67663941     0.08800
H135        H  0.76635501  0.90455216  0.65077644     0.10000
Cu136      Cu  0.66949539  0.03052426  0.64217596     0.44200
Cu137      Cu  0.75294230  0.97707315  0.62094729     0.42000
Cu138      Cu  0.71447867  0.07419104  0.60262777     0.43900
N139        N  0.64797621  0.08411311  0.62993863    -0.33600
N140        N  0.66451495  0.10026962  0.61574463    -0.27900
C141        C  0.64302408  0.13482060  0.61131167    -0.04000
C142        C  0.61142697  0.14043074  0.62324455     0.08200
C143        C  0.61540026  0.10781505  0.63485268     0.02000
H144        H  0.64938847  0.15391629  0.60006067     0.09700
H145        H  0.59582350  0.10156580  0.64596007     0.08800
N146        N  0.76362539  0.04036657  0.59232140    -0.35100
N147        N  0.77681930  0.00448370  0.59884805    -0.27300
C148        C  0.80854594  0.99007167  0.58919890    -0.02500
C149        C  0.81585627  0.01830690  0.57600155     0.06100
C150        C  0.78689191  0.04992686  0.57838419     0.04200
H151        H  0.82549327  0.96146099  0.59180126     0.09300
H152        H  0.78260508  0.07750522  0.57045836     0.08200
O153        O  0.54110066  0.52872000  0.01882682    -0.71900
O154        O  0.45350503  0.51818045  0.98248549    -0.72900
O155        O  0.45255205  0.52916196  0.01849032    -0.61500
O156        O  0.54103610  0.51805096  0.98263814    -0.69900
O157        O  0.54213982  0.44914757  0.98625762    -0.69500
O158        O  0.45160547  0.46044101  0.02191198    -0.60700
O159        O  0.45345740  0.44933469  0.98558542    -0.73200
O160        O  0.54086105  0.46011099  0.02263366    -0.72000
Cu161      Cu  0.49712085  0.52582496  0.00054426     1.04600
Cu162      Cu  0.49702946  0.45227310  0.00427732     1.04300
C163        C  0.55528760  0.49625579  0.02645814     0.94300
C164        C  0.43969986  0.48224801  0.97811051     0.93400
C165        C  0.43728852  0.49663697  0.02569679     0.85600
C166        C  0.55510915  0.48206708  0.97854818     0.91900
N167        N  0.76894212  0.54834451  0.85849911    -0.26200
N168        N  0.80208492  0.53187482  0.85093485    -0.34100
C169        C  0.80898048  0.55220765  0.83596391     0.02100
C170        C  0.77854404  0.58283892  0.83399718     0.08100
C171        C  0.75386708  0.57944443  0.84862522    -0.05000
H172        H  0.83326483  0.54400225  0.82685661     0.08800
H173        H  0.72653705  0.59776250  0.85183967     0.10000
Cu174      Cu  0.83359168  0.47997339  0.86070148     0.44200
Cu175      Cu  0.74267932  0.52536912  0.88089573     0.42000
Cu176      Cu  0.77937710  0.42496223  0.89535063     0.43900
N177        N  0.85453094  0.42442072  0.87182585    -0.33600
N178        N  0.83427236  0.40417832  0.88418031    -0.27900
C179        C  0.85502885  0.36881139  0.88805651    -0.04000
C180        C  0.88998700  0.36653281  0.87760662     0.08200
C181        C  0.88882975  0.40238674  0.86754080     0.02000
H182        H  0.84537834  0.34642154  0.89776863     0.09700
H183        H  0.91102683  0.41147615  0.85767377     0.08800
N184        N  0.72835115  0.45509068  0.90595276    -0.35100
N185        N  0.71624847  0.49276080  0.90111795    -0.27300
C186        C  0.68456064  0.50519557  0.91121594    -0.02500
C187        C  0.67573545  0.47361382  0.92300724     0.06100
C188        C  0.70425937  0.44220526  0.91914313     0.04200
H189        H  0.67016091  0.53566096  0.91021845     0.09300
H190        H  0.70773073  0.41215484  0.92537736     0.08200
N191        N  0.23301553  0.54167669  0.85599189    -0.26200
N192        N  0.19898117  0.52643927  0.84865098    -0.34100
C193        C  0.19061282  0.54856371  0.83430061     0.02100
C194        C  0.22095567  0.57922592  0.83257472     0.08100
C195        C  0.24725927  0.57393895  0.84659670    -0.05000
H196        H  0.16504285  0.54194903  0.82555483     0.08800
H197        H  0.27475821  0.59208322  0.84981279     0.10000
Cu198      Cu  0.16686566  0.47550891  0.85824168     0.44200
Cu199      Cu  0.25957911  0.51729618  0.87797035     0.42000
Cu200      Cu  0.21107823  0.42712166  0.89692584     0.43900
N201        N  0.14329207  0.42246097  0.86991552    -0.33600
N202        N  0.15971448  0.40473473  0.88380230    -0.27900
C203        C  0.13791875  0.37008574  0.88767855    -0.04000
C204        C  0.10636960  0.36597464  0.87566013     0.08200
C205        C  0.11037419  0.39967765  0.86462993     0.02000
H206        H  0.14447886  0.34953370  0.89846164     0.09700
H207        H  0.09107059  0.40691706  0.85353430     0.08800
N208        N  0.26394939  0.45489466  0.90688177    -0.35100
N209        N  0.28160292  0.48810866  0.89980981    -0.27300
C210        C  0.31476555  0.49950839  0.90930273    -0.02500
C211        C  0.31814283  0.47212460  0.92305788     0.06100
C212        C  0.28549959  0.44408205  0.92111031     0.04200
H213        H  0.33477967  0.52590564  0.90639256     0.09300
H214        H  0.27725677  0.41850728  0.92962797     0.08200
O215        O  0.72445894  0.20561117  0.22895903    -0.71900
O216        O  0.71125068  0.29126637  0.26614855    -0.72900
O217        O  0.72638984  0.29382146  0.23011045    -0.61500
O218        O  0.70980275  0.20288767  0.26523830    -0.69900
O219        O  0.77812094  0.20189265  0.26975968    -0.69500
O220        O  0.79470907  0.29268040  0.23464943    -0.60700
O221        O  0.77951544  0.29044913  0.27086930    -0.73200
O222        O  0.79282187  0.20406768  0.23339822    -0.72000
Cu223      Cu  0.71566803  0.24841701  0.24744463     1.04600
Cu224      Cu  0.78868927  0.24716506  0.25234067     1.04300
C225        C  0.76061193  0.19154573  0.22505023     0.94300
C226        C  0.74308623  0.30445392  0.27449824     0.93400
C227        C  0.76302901  0.30759120  0.22669547     0.85600
C228        C  0.74149697  0.18831806  0.27331720     0.91900
O229        O  0.54457425  0.03722460  0.01733593    -0.71900
O230        O  0.45361867  0.04567686  0.98197335    -0.72900
O231        O  0.45557017  0.03508220  0.01806067    -0.61500
O232        O  0.54216759  0.04811835  0.98113383    -0.69900
O233        O  0.54340910  0.97937377  0.97769611    -0.69500
O234        O  0.45689869  0.96627937  0.01482951    -0.60700
O235        O  0.45470371  0.97694906  0.97864963    -0.73200
O236        O  0.54601184  0.96853659  0.01391052    -0.72000
Cu237      Cu  0.49896352  0.04387710  0.99977530     1.04600
Cu238      Cu  0.50034927  0.97037755  0.99617528     1.04300
C239        C  0.56021869  0.00158542  0.02110034     0.94300
C240        C  0.43944181  0.01266162  0.97475402     0.93400
C241        C  0.44177755  0.99882673  0.02207443     0.85600
C242        C  0.55659787  0.01577944  0.97352925     0.91900
N243        N  0.27829847  0.01691219  0.89738803    -0.26200
N244        N  0.25956752  0.04815396  0.90539649    -0.34100
C245        C  0.27876479  0.05474011  0.92061942     0.02100
C246        C  0.31116615  0.02616584  0.92221804     0.08100
C247        C  0.30987812  0.00276579  0.90720780    -0.05000
H248        H  0.26965806  0.07850570  0.92980981     0.08800
H249        H  0.33088861  0.97787389  0.90345598     0.10000
Cu250      Cu  0.20956960  0.08051472  0.89481023     0.44200
Cu251      Cu  0.26019984  0.99469654  0.87358805     0.42000
Cu252      Cu  0.17025555  0.04204476  0.85331325     0.43900
N253        N  0.16063231  0.10771213  0.88126610    -0.33600
N254        N  0.14560521  0.09328069  0.86647997    -0.27900
C255        C  0.11329372  0.11750922  0.86153479    -0.04000
C256        C  0.10821557  0.14882641  0.87366668     0.08200
C257        C  0.13865712  0.14170101  0.88598933     0.02000
H258        H  0.09494134  0.11278193  0.84994935     0.09700
H259        H  0.14402533  0.15951058  0.89766211     0.08800
N260        N  0.20300382  0.99184439  0.84274533    -0.35100
N261        N  0.23575889  0.97480451  0.85039700    -0.27300
C262        C  0.24984502  0.94289555  0.84079763    -0.02500
C263        C  0.22511440  0.93953026  0.82615183     0.06100
C264        C  0.19559883  0.97123460  0.82788226     0.04200
H265        H  0.27571063  0.92310611  0.84455452     0.09300
H266        H  0.17081399  0.97922323  0.81896352     0.08200
N267        N  0.71916104  0.01792994  0.89668672    -0.26200
N268        N  0.73251979  0.05390584  0.90297110    -0.34100
C269        C  0.70922987  0.06402605  0.91681815     0.02100
C270        C  0.68003195  0.03256491  0.91936905     0.08100
C271        C  0.68719996  0.00395293  0.90632669    -0.05000
H272        H  0.71415427  0.09143222  0.92475587     0.08800
H273        H  0.67060358  0.97496592  0.90403479     0.10000
Cu274      Cu  0.78355649  0.08488080  0.89269877     0.44200
Cu275      Cu  0.74587286  0.98920441  0.87564983     0.42000
Cu276      Cu  0.83834133  0.03404633  0.85630462     0.43900
N277        N  0.83711705  0.10774551  0.88106650    -0.33600
N278        N  0.85751699  0.08931118  0.86828504    -0.27900
C279        C  0.89119996  0.11267374  0.86426615    -0.04000
C280        C  0.89170319  0.14743591  0.87492973     0.08200
C281        C  0.85709035  0.14320269  0.88543236     0.02000
H282        H  0.91359099  0.10506060  0.85427638     0.09700
H283        H  0.84733479  0.16414472  0.89563325     0.08800
N284        N  0.80737354  0.98190485  0.84631726    -0.35100
N285        N  0.77371431  0.96595915  0.85372207    -0.27300
C286        C  0.75903308  0.93437249  0.84409666    -0.02500
C287        C  0.78424848  0.93008140  0.82969819     0.06100
C288        C  0.81491193  0.96065116  0.83160273     0.04200
H289        H  0.73155856  0.91625688  0.84735946     0.09300
H290        H  0.83977305  0.96809857  0.82263333     0.08200
O291        O  0.28417274  0.29139528  0.22883923    -0.71900
O292        O  0.30264284  0.20316751  0.26514198    -0.72900
O293        O  0.28791924  0.20279033  0.22867538    -0.61500
O294        O  0.29878850  0.29158726  0.26514241    -0.69900
O295        O  0.23042701  0.28875876  0.26948797    -0.69500
O296        O  0.21965082  0.20028261  0.23327957    -0.60700
O297        O  0.23423913  0.20089916  0.26950489    -0.73200
O298        O  0.21590360  0.28854638  0.23335067    -0.72000
Cu299      Cu  0.29579253  0.24729568  0.24675297     1.04600
Cu300      Cu  0.22275650  0.24445436  0.25154108     1.04300
C301        C  0.24717992  0.30397655  0.22529339     0.94300
C302        C  0.27114212  0.18883920  0.27343084     0.93400
C303        C  0.25189966  0.18770362  0.22506250     0.85600
C304        C  0.26625490  0.30394746  0.27325881     0.91900
N305        N  0.23629923  0.03590641  0.14431913    -0.26200
N306        N  0.20981051  0.01364181  0.15366378    -0.34100
C307        C  0.20643359  0.03130779  0.16937392     0.02100
C308        C  0.23204047  0.06643631  0.16989421     0.08100
C309        C  0.25043127  0.06821140  0.15373079    -0.05000
H310        H  0.18690399  0.01924678  0.17964452     0.08800
H311        H  0.27189618  0.09168704  0.14894151     0.10000
Cu312      Cu  0.17891095  0.96104209  0.14420586     0.44200
Cu313      Cu  0.25316866  0.02135394  0.11938503     0.42000
Cu314      Cu  0.21340458  0.92484427  0.10189910     0.43900
N315        N  0.15178013  0.91112546  0.13101667    -0.33600
N316        N  0.16483568  0.89752763  0.11579719    -0.27900
C317        C  0.14078491  0.86504826  0.11086829    -0.04000
C318        C  0.11107713  0.85811040  0.12352584     0.08200
C319        C  0.11884205  0.88785818  0.13608277     0.02000
H320        H  0.14431784  0.84809165  0.09887009     0.09700
H321        H  0.10184200  0.89221296  0.14802774     0.08800
N322        N  0.25941470  0.96064532  0.08994853    -0.35100
N323        N  0.27255707  0.99683159  0.09616366    -0.27300
C324        C  0.30256197  0.01228309  0.08584081    -0.02500
C325        C  0.30898113  0.98436467  0.07249452     0.06100
C326        C  0.28110978  0.95190155  0.07549873     0.04200
H327        H  0.31983879  0.04076407  0.08836033     0.09300
H328        H  0.27718978  0.92381351  0.06788236     0.08200
N329        N  0.72740650  0.99854805  0.09636019    -0.26200
N330        N  0.74591718  0.96743202  0.08818353    -0.34100
C331        C  0.72614801  0.96104520  0.07305373     0.02100
C332        C  0.69348698  0.98951806  0.07172944     0.08100
C333        C  0.69539629  0.01267513  0.08679867    -0.05000
H334        H  0.73481059  0.93719283  0.06383291     0.08800
H335        H  0.67419754  0.03706264  0.09090230     0.10000
Cu336      Cu  0.79540736  0.93404861  0.09878521     0.44200
Cu337      Cu  0.74499174  0.02002334  0.12033345     0.42000
Cu338      Cu  0.82930505  0.96792602  0.14193024     0.43900
N339        N  0.84287144  0.90565727  0.11290680    -0.33600
N340        N  0.85561003  0.91838160  0.12831867    -0.27900
C341        C  0.88705268  0.89356655  0.13366328    -0.04000
C342        C  0.89409560  0.86369847  0.12111649     0.08200
C343        C  0.86557700  0.87214420  0.10815539     0.02000
H344        H  0.90322107  0.89668151  0.14588006     0.09700
H345        H  0.86166496  0.85524886  0.09615812     0.08800
N346        N  0.79746581  0.01860871  0.15243968    -0.35100
N347        N  0.76693292  0.03794946  0.14420190    -0.27300
C348        C  0.75351157  0.07027396  0.15374382    -0.02500
C349        C  0.77643209  0.07148463  0.16895775     0.06100
C350        C  0.80401560  0.03797019  0.16763297     0.04200
H351        H  0.72947467  0.09177719  0.14955647     0.09300
H352        H  0.82703119  0.02798775  0.17700259     0.08200
N353        N  0.72554814  0.50477465  0.10105496    -0.26200
N354        N  0.73850479  0.54003133  0.09392737    -0.34100
C355        C  0.71578804  0.54714435  0.07956686     0.02100
C356        C  0.68696880  0.51482105  0.07765510     0.08100
C357        C  0.69426083  0.48867736  0.09160168    -0.05000
H358        H  0.72010919  0.57389978  0.07119270     0.08800
H359        H  0.67726526  0.46063229  0.09506365     0.10000
Cu360      Cu  0.78549699  0.57693815  0.10474245     0.44200
Cu361      Cu  0.74919586  0.48030589  0.12362706     0.42000
Cu362      Cu  0.82633938  0.53891594  0.14639503     0.43900
N363        N  0.83374241  0.60539956  0.11858576    -0.33600
N364        N  0.84836726  0.59132808  0.13351381    -0.27900
C365        C  0.88080138  0.61526303  0.13848355    -0.04000
C366        C  0.88687860  0.64595315  0.12617232     0.08200
C367        C  0.85649049  0.63891996  0.11375127     0.02000
H368        H  0.89913148  0.61020119  0.15005474     0.09700
H369        H  0.85201795  0.65618284  0.10185945     0.08800
N370        N  0.80154951  0.48349097  0.15575367    -0.35100
N371        N  0.77317078  0.46196309  0.14711259    -0.27300
C372        C  0.76172103  0.42848492  0.15643689    -0.02500
C373        C  0.78393821  0.42885187  0.17176380     0.06100
C374        C  0.80915590  0.46407810  0.17087970     0.04200
H375        H  0.73845498  0.40588782  0.15241824     0.09300
H376        H  0.83027746  0.47556838  0.18072219     0.08200
N377        N  0.22840717  0.46157104  0.14688650    -0.26200
N378        N  0.19923667  0.48111765  0.15583906    -0.34100
C379        C  0.19407300  0.46112550  0.17101838     0.02100
C380        C  0.22170697  0.42770272  0.17156675     0.08100
C381        C  0.24287486  0.42900739  0.15603679    -0.05000
H382        H  0.17242290  0.47063979  0.18100340     0.08800
H383        H  0.26684418  0.40768897  0.15160650     0.10000
Cu384      Cu  0.16931066  0.53429556  0.14651544     0.44200
Cu385      Cu  0.24784496  0.47998934  0.12282695     0.42000
Cu386      Cu  0.20449048  0.57228168  0.10368659     0.43900
N387        N  0.14440963  0.58577065  0.13364605    -0.33600
N388        N  0.15729290  0.59958684  0.11839788    -0.27900
C389        C  0.13435223  0.63318306  0.11393719    -0.04000
C390        C  0.10562305  0.64068786  0.12690322     0.08200
C391        C  0.11277357  0.61008714  0.13918101     0.02000
H392        H  0.13795101  0.65057538  0.10202741     0.09700
H393        H  0.09616858  0.60576240  0.15122930     0.08800
N394        N  0.25209745  0.53759045  0.09225977    -0.35100
N395        N  0.26727611  0.50344887  0.09953318    -0.27300
C396        C  0.29838979  0.48821777  0.08983049    -0.02500
C397        C  0.30334676  0.51384100  0.07559748     0.06100
C398        C  0.27341317  0.54501525  0.07755460     0.04200
H399        H  0.31709485  0.46133053  0.09333848     0.09300
H400        H  0.26769077  0.57126593  0.06904542     0.08200
N401        N  0.28394582  0.04366566  0.35673669    -0.26200
N402        N  0.30952510  0.02050349  0.34737069    -0.34100
C403        C  0.31592757  0.03924071  0.33203423     0.02100
C404        C  0.29322958  0.07613892  0.33163408     0.08100
C405        C  0.27350065  0.07789724  0.34760235    -0.05000
H406        H  0.33444896  0.02598954  0.32171450     0.08800
H407        H  0.25251832  0.10189712  0.35223430     0.10000
Cu408      Cu  0.33335570  0.96387244  0.35559716     0.44200
Cu409      Cu  0.26078933  0.02568915  0.38076820     0.42000
Cu410      Cu  0.28524656  0.92032559  0.39396546     0.43900
N411        N  0.35396072  0.91020796  0.36777317    -0.33600
N412        N  0.33586785  0.89383784  0.38157881    -0.27900
C413        C  0.35733970  0.85976468  0.38654785    -0.04000
C414        C  0.39061504  0.85481900  0.37538268     0.08200
C415        C  0.38764577  0.88720978  0.36364552     0.02000
H416        H  0.34975311  0.84052718  0.39762620     0.09700
H417        H  0.40844701  0.89364346  0.35294189     0.08800
N418        N  0.24135307  0.95702106  0.40627561    -0.35100
N419        N  0.23391039  0.99633551  0.40207398    -0.27300
C420        C  0.20437814  0.01155465  0.41269737    -0.02500
C421        C  0.19192393  0.98006003  0.42405271     0.06100
C422        C  0.21643607  0.94595128  0.41948604     0.04200
H423        H  0.19287049  0.04325656  0.41195029     0.09300
H424        H  0.21563831  0.91477511  0.42487627     0.08200
N425        N  0.78307492  0.98037069  0.39724484    -0.26200
N426        N  0.76733129  0.94628138  0.40437243    -0.34100
C427        C  0.78875313  0.93776700  0.41896578     0.02100
C428        C  0.81956437  0.96808441  0.42112489     0.08100
C429        C  0.81493133  0.99436791  0.40697734    -0.05000
H430        H  0.78164042  0.91200714  0.42755096     0.08800
H431        H  0.83345229  0.02165594  0.40383206     0.10000
Cu432      Cu  0.71641988  0.91480888  0.39374492     0.44200
Cu433      Cu  0.75950866  0.00736071  0.37497186     0.42000
Cu434      Cu  0.66663467  0.96351000  0.35566503     0.43900
N435        N  0.66295529  0.89220664  0.38152445    -0.33600
N436        N  0.64417476  0.91053542  0.36826406    -0.27900
C437        C  0.60967558  0.88853547  0.36412102    -0.04000
C438        C  0.60693791  0.85459646  0.37514868     0.08200
C439        C  0.64116413  0.85781317  0.38598352     0.02000
H440        H  0.58849428  0.89630733  0.35369074     0.09700
H441        H  0.64941800  0.83688559  0.39643937     0.08800
N442        N  0.69850025  0.01449391  0.34535284    -0.35100
N443        N  0.73217390  0.03052382  0.35270413    -0.27300
C444        C  0.74621300  0.06253890  0.34308908    -0.02500
C445        C  0.72056555  0.06688000  0.32874035     0.06100
C446        C  0.69044583  0.03580390  0.33069257     0.04200
H447        H  0.77321751  0.08121107  0.34645415     0.09300
H448        H  0.66524106  0.02828488  0.32189991     0.08200
N449        N  0.72726558  0.45647645  0.35545862    -0.26200
N450        N  0.69773339  0.47616727  0.34671506    -0.34100
C451        C  0.69208781  0.45670649  0.33147276     0.02100
C452        C  0.71942035  0.42298862  0.33057228     0.08100
C453        C  0.74094810  0.42386566  0.34612998    -0.05000
H454        H  0.67056411  0.46726759  0.32160706     0.08800
H455        H  0.76504002  0.40256833  0.35045105     0.10000
Cu456      Cu  0.66781669  0.52928267  0.35592873     0.44200
Cu457      Cu  0.75072361  0.47644223  0.37899852     0.42000
Cu458      Cu  0.71289256  0.57464513  0.39520169     0.43900
N459        N  0.64445126  0.58202387  0.36822356    -0.33600
N460        N  0.66143388  0.59916617  0.38213008    -0.27900
C461        C  0.63911917  0.63322492  0.38651898    -0.04000
C462        C  0.60643584  0.63738824  0.37493124     0.08200
C463        C  0.61065995  0.60442874  0.36354062     0.02000
H464        H  0.64583842  0.65316422  0.39746233     0.09700
H465        H  0.59082180  0.59742823  0.35258453     0.08800
N466        N  0.76099020  0.54099404  0.40692160    -0.35100
N467        N  0.77419187  0.50448124  0.40110092    -0.27300
C468        C  0.80463248  0.49009115  0.41154268    -0.02500
C469        C  0.81108327  0.51891858  0.42464599     0.06100
C470        C  0.78282151  0.55086458  0.42123599     0.04200
H471        H  0.82131019  0.46107228  0.40952977     0.09300
H472        H  0.77792019  0.57892869  0.42875838     0.08200
N473        N  0.26722592  0.45887060  0.35309314    -0.26200
N474        N  0.29879811  0.47759087  0.34522401    -0.34100
C475        C  0.30742489  0.45699150  0.33051028     0.02100
C476        C  0.27967225  0.42391105  0.32900975     0.08100
C477        C  0.25462894  0.42610249  0.34355268    -0.05000
H478        H  0.33141883  0.46607025  0.32138754     0.08800
H479        H  0.22912663  0.40541978  0.34698181     0.10000
Cu480      Cu  0.32740611  0.53099904  0.35471333     0.44200
Cu481      Cu  0.24178166  0.47950348  0.37610654     0.42000
Cu482      Cu  0.27799814  0.57908228  0.39219095     0.43900
N483        N  0.35029080  0.58358162  0.36717134    -0.33600
N484        N  0.33193016  0.60146069  0.38057846    -0.27900
C485        C  0.35462286  0.63481950  0.38549059    -0.04000
C486        C  0.38893508  0.63785506  0.37471007     0.08200
C487        C  0.38528658  0.60495658  0.36325895     0.02000
H488        H  0.34680372  0.65526840  0.39613791     0.09700
H489        H  0.40623424  0.59740557  0.35274293     0.08800
N490        N  0.22891156  0.54598122  0.40308149    -0.35100
N491        N  0.21696618  0.50876346  0.39758457    -0.27300
C492        C  0.18578807  0.49472294  0.40766124    -0.02500
C493        C  0.17711678  0.52474192  0.42009412     0.06100
C494        C  0.20528701  0.55686406  0.41671539     0.04200
H495        H  0.17103221  0.46454894  0.40603958     0.09300
H496        H  0.20827560  0.58633105  0.42343956     0.08200
N497        N  0.00114251  0.81609727  0.12373125    -0.35600
N498        N  0.06384075  0.75022139  0.12505418    -0.56100
N499        N  0.99724255  0.68752097  0.12778701    -0.35500
N500        N  0.93459188  0.75330866  0.12326823    -0.56100
C501        C  0.03611275  0.83870562  0.12048673     0.28000
C502        C  0.96794427  0.84032087  0.11955342     0.28000
C503        C  0.03087811  0.66223912  0.12575791     0.28000
C504        C  0.96258217  0.66396833  0.12511245     0.28000
C505        C  0.08951863  0.78370796  0.12656781     0.36700
C506        C  0.08756807  0.71603244  0.12817632     0.36700
C507        C  0.91080298  0.78820080  0.12432467     0.36700
C508        C  0.90865375  0.72058022  0.12616511     0.36700
C509        C  0.02496104  0.87787401  0.11428024    -0.20800
C510        C  0.98197859  0.87889266  0.11369090    -0.20800
C511        C  0.01733654  0.62192867  0.12214170    -0.20800
C512        C  0.97437662  0.62301407  0.12173647    -0.20800
C513        C  0.12974583  0.77069093  0.13053506    -0.21900
C514        C  0.12853199  0.72786619  0.13152193    -0.21900
C515        C  0.86955276  0.77753501  0.12768875    -0.21900
C516        C  0.86818549  0.73474671  0.12884589    -0.21900
C517        C  0.07776884  0.82576587  0.12363884    -0.17200
C518        C  0.92531506  0.82952691  0.12168896    -0.17200
C519        C  0.92052047  0.67796922  0.12591095    -0.17200
C520        C  0.07349207  0.67411728  0.12726492    -0.17200
H521        H  0.04564352  0.90318974  0.11059539     0.15700
H522        H  0.96319003  0.90516025  0.10947999     0.15700
H523        H  0.03638636  0.59453444  0.11982249     0.15700
H524        H  0.95419726  0.59662161  0.11901466     0.15700
H525        H  0.15721226  0.78998358  0.13242749     0.14000
H526        H  0.15487042  0.70775267  0.13438265     0.14000
H527        H  0.84314039  0.79837875  0.12918366     0.14000
H528        H  0.84052427  0.71625129  0.13147027     0.14000
H529        H  0.99985509  0.78772852  0.13028214     0.27200
H530        H  0.99778972  0.71819569  0.13219788     0.27200
N531        N  0.49844119  0.80996705  0.37481003    -0.35600
N532        N  0.43365000  0.74603471  0.37585882    -0.56100
N533        N  0.49775545  0.68188512  0.37394805    -0.35500
N534        N  0.56252002  0.74593106  0.37545600    -0.56100
C535        C  0.46453470  0.83313978  0.37890566     0.28000
C536        C  0.53261323  0.83316703  0.37863238     0.28000
C537        C  0.46362306  0.65850117  0.37768815     0.28000
C538        C  0.53179335  0.65840400  0.37767860     0.28000
C539        C  0.40966462  0.78005751  0.37292339     0.36700
C540        C  0.40925457  0.71250533  0.37249618     0.36700
C541        C  0.58662114  0.77978658  0.37216300     0.36700
C542        C  0.58632974  0.71208905  0.37195134     0.36700
C543        C  0.47723824  0.87148231  0.38544936    -0.20800
C544        C  0.52028434  0.87148624  0.38529163    -0.20800
C545        C  0.47608058  0.61966790  0.38380914    -0.20800
C546        C  0.51913824  0.61961548  0.38381693    -0.20800
C547        C  0.36985519  0.76813952  0.36777652    -0.21900
C548        C  0.36959957  0.72526830  0.36749529    -0.21900
C549        C  0.62585225  0.76741334  0.36653752    -0.21900
C550        C  0.62568865  0.72446164  0.36643091    -0.21900
C551        C  0.42259161  0.82162838  0.37574745    -0.17200
C552        C  0.57441318  0.82155196  0.37521508    -0.17200
C553        C  0.57382117  0.67026977  0.37473440    -0.17200
C554        C  0.42165165  0.67058180  0.37486093    -0.17200
H555        H  0.45753346  0.89696578  0.38972894     0.15700
H556        H  0.54020846  0.89696993  0.38944152     0.15700
H557        H  0.45622081  0.59397043  0.38780236     0.15700
H558        H  0.53886323  0.59383304  0.38779394     0.15700
H559        H  0.34368605  0.78818528  0.36458849     0.14000
H560        H  0.34319564  0.70579102  0.36402268     0.14000
H561        H  0.65194827  0.78722219  0.36298008     0.14000
H562        H  0.65162873  0.70462213  0.36277738     0.14000
H563        H  0.49818463  0.78222000  0.36782090     0.27200
H564        H  0.49780350  0.71027436  0.36738307     0.27200
N565        N  0.43814098  0.24925847  0.62337244    -0.35600
N566        N  0.50300644  0.18476606  0.62402790    -0.56100
N567        N  0.56720811  0.24934311  0.62264572    -0.35500
N568        N  0.50239193  0.31377304  0.62523727    -0.56100
C569        C  0.41452077  0.21486139  0.62638570     0.28000
C570        C  0.41399189  0.28313165  0.62660671     0.28000
C571        C  0.59104307  0.21513309  0.62566735     0.28000
C572        C  0.59092963  0.28326584  0.62627608     0.28000
C573        C  0.46909920  0.16020797  0.62156656     0.36700
C574        C  0.53673664  0.16036364  0.62104209     0.36700
C575        C  0.46840764  0.33851752  0.62302898     0.36700
C576        C  0.53630295  0.33847987  0.62276469     0.36700
C577        C  0.37466878  0.22704602  0.63138265    -0.20800
C578        C  0.37431644  0.27008016  0.63148706    -0.20800
C579        C  0.63051855  0.22746199  0.63110538    -0.20800
C580        C  0.63043646  0.27042822  0.63151829    -0.20800
C581        C  0.48135831  0.12004703  0.61710454    -0.21900
C582        C  0.52420387  0.12017089  0.61673281    -0.21900
C583        C  0.48082492  0.37910366  0.61935953    -0.21900
C584        C  0.52370830  0.37906387  0.61913568    -0.21900
C585        C  0.42722463  0.17281160  0.62406495    -0.17200
C586        C  0.42625001  0.32549477  0.62474470    -0.17200
C587        C  0.57852320  0.32550767  0.62440638    -0.17200
C588        C  0.57871756  0.17312121  0.62310722    -0.17200
H589        H  0.34845995  0.20702874  0.63459402     0.15700
H590        H  0.34783579  0.28952625  0.63483080     0.15700
H591        H  0.65666851  0.20758473  0.63450321     0.15700
H592        H  0.65653847  0.28993403  0.63533637     0.15700
H593        H  0.46152000  0.09338842  0.61438836     0.14000
H594        H  0.54383027  0.09361892  0.61368080     0.14000
H595        H  0.46107897  0.40596066  0.61692837     0.14000
H596        H  0.54328023  0.40593202  0.61645991     0.14000
H597        H  0.46767013  0.24960570  0.61772974     0.27200
H598        H  0.53796348  0.24967526  0.61671664     0.27200
N599        N  0.99808741  0.32150469  0.87506674    -0.35600
N600        N  0.06327331  0.25727527  0.87471537    -0.56100
N601        N  0.99945314  0.19328479  0.87380605    -0.35500
N602        N  0.93422480  0.25719448  0.87716278    -0.56100
C603        C  0.03242943  0.34484576  0.87839061     0.28000
C604        C  0.96444204  0.34485602  0.87944680     0.28000
C605        C  0.03382941  0.16969036  0.87691903     0.28000
C606        C  0.96576348  0.16952842  0.87775386     0.28000
C607        C  0.08733296  0.29148105  0.87224790     0.36700
C608        C  0.08813510  0.22384705  0.87179010     0.36700
C609        C  0.90936713  0.29106531  0.87494894     0.36700
C610        C  0.91007154  0.22327466  0.87399688     0.36700
C611        C  0.02047771  0.38349541  0.88486576    -0.20800
C612        C  0.97758528  0.38346909  0.88555918    -0.20800
C613        C  0.02181871  0.13057617  0.88287634    -0.20800
C614        C  0.97888274  0.13049253  0.88343873    -0.20800
C615        C  0.12769789  0.27973529  0.86781568    -0.21900
C616        C  0.12821219  0.23682812  0.86756039    -0.21900
C617        C  0.86923696  0.27857059  0.87054694    -0.21900
C618        C  0.86969205  0.23568450  0.86991941    -0.21900
C619        C  0.07421544  0.33302515  0.87511140    -0.17200
C620        C  0.92217378  0.33305315  0.87729107    -0.17200
C621        C  0.92349474  0.18122581  0.87544017    -0.17200
C622        C  0.07568907  0.18181390  0.87388409    -0.17200
H623        H  0.04055972  0.40911124  0.88874179     0.15700
H624        H  0.95832545  0.40901820  0.89009817     0.15700
H625        H  0.04190074  0.10473252  0.88646362     0.15700
H626        H  0.95954371  0.10453611  0.88756925     0.15700
H627        H  0.15416293  0.29992781  0.86521127     0.14000
H628        H  0.15508516  0.21744566  0.86472261     0.14000
H629        H  0.84247246  0.29821035  0.86783219     0.14000
H630        H  0.84328712  0.21600171  0.86667154     0.14000
H631        H  0.99755609  0.29327104  0.86843496     0.27200
H632        H  0.99870673  0.22198981  0.86748991     0.27200
C633        C  0.19977065  0.34965041  0.20726077     0.24700
C634        C  0.24052213  0.33637922  0.21174662    -0.23500
C635        C  0.27487258  0.35425355  0.20298409     0.19600
C636        C  0.26862387  0.38408676  0.19003800     0.24600
C637        C  0.22803116  0.39710905  0.18562532    -0.23400
C638        C  0.19369618  0.37982691  0.19439007     0.19500
F639        F  0.15406994  0.39097782  0.19004881    -0.13400
F640        F  0.16553222  0.33317164  0.21511589    -0.15700
F641        F  0.30252358  0.40091398  0.18204918    -0.15700
F642        F  0.31475355  0.34304631  0.20686974    -0.13400
C643        C  0.27585286  0.11768417  0.18661411     0.24700
C644        C  0.23754691  0.09662035  0.18426376    -0.23500
C645        C  0.20421169  0.10548401  0.19551596     0.19600
C646        C  0.20897996  0.13465689  0.20881011     0.24600
C647        C  0.24725893  0.15591011  0.21117715    -0.23400
C648        C  0.28062684  0.14704763  0.19985777     0.19500
F649        F  0.31788560  0.16718575  0.20135449    -0.13400
F650        F  0.30915104  0.10947460  0.17628378    -0.15700
F651        F  0.17575559  0.14211588  0.21928233    -0.15700
F652        F  0.16629092  0.08708289  0.19332680    -0.13400
C653        C  0.23703420  0.38178317  0.30828792     0.24700
C654        C  0.27642552  0.39362663  0.31467526    -0.23500
C655        C  0.31258774  0.37630682  0.30728447     0.19600
C656        C  0.30944589  0.34735765  0.29379708     0.24600
C657        C  0.26993742  0.33546316  0.28728592    -0.23400
C658        C  0.23376908  0.35325325  0.29469582     0.19500
F659        F  0.19499813  0.34342246  0.28876171    -0.13400
F660        F  0.20153236  0.39868618  0.31489800    -0.15700
F661        F  0.34517675  0.33039765  0.28742879    -0.15700
F662        F  0.35102905  0.38626479  0.31353593    -0.13400
C663        C  0.25019651  0.12663250  0.31430311     0.24700
C664        C  0.28816088  0.10523095  0.31679137    -0.23500
C665        C  0.32070120  0.11127463  0.30475513     0.19600
C666        C  0.31524671  0.13797310  0.29054335     0.24600
C667        C  0.27711665  0.15928492  0.28806646    -0.23400
C668        C  0.24478412  0.15331121  0.30019511     0.19500
F669        F  0.20777586  0.17381327  0.29864848    -0.13400
F670        F  0.21752648  0.12105998  0.32525592    -0.15700
F671        F  0.34730930  0.14269305  0.27919924    -0.15700
F672        F  0.35826423  0.09216956  0.30691159    -0.13400
C673        C  0.64757145  0.95718998  0.04901765     0.24700
C674        C  0.66117051  0.99285395  0.05805087    -0.23500
C675        C  0.64213051  0.03160789  0.05448114     0.19600
C676        C  0.60943952  0.03445617  0.04255486     0.24600
C677        C  0.59516789  0.99862249  0.03372169    -0.23400
C678        C  0.61505972  0.96001789  0.03698108     0.19500
F679        F  0.60298686  0.92463050  0.02865953    -0.13400
F680        F  0.66452150  0.91906176  0.05225450    -0.15700
F681        F  0.59171457  0.07249249  0.03981648    -0.15700
F682        F  0.65547330  0.06714903  0.06234608    -0.13400
C683        C  0.36543196  0.95220230  0.05447748     0.24700
C684        C  0.34154109  0.98737519  0.05902271    -0.23500
C685        C  0.35035095  0.02608578  0.05121643     0.19600
C686        C  0.38283558  0.02977257  0.03924766     0.24600
C687        C  0.40746537  0.99476217  0.03487922    -0.23400
C688        C  0.39814437  0.95583038  0.04256419     0.19500
F689        F  0.42122469  0.92132740  0.03889944    -0.13400
F690        F  0.35829900  0.91458844  0.06210075    -0.15700
F691        F  0.38955225  0.06761345  0.03173631    -0.15700
F692        F  0.32689042  0.06033040  0.05490662    -0.13400
C693        C  0.62638249  0.06376976  0.93902848     0.24700
C694        C  0.64923509  0.02879288  0.93347244    -0.23500
C695        C  0.64214450  0.98981270  0.94135383     0.19600
C696        C  0.61234967  0.98566456  0.95442104     0.24600
C697        C  0.58874983  0.02046036  0.95984993    -0.23400
C698        C  0.59629567  0.05967089  0.95204099     0.19500
F699        F  0.57396923  0.09399421  0.95666897    -0.13400
F700        F  0.63210271  0.10168556  0.93144801    -0.15700
F701        F  0.60725858  0.94757667  0.96192967    -0.15700
F702        F  0.66495146  0.95578495  0.93675290    -0.13400
C703        C  0.38788748  0.05510708  0.95753624     0.24700
C704        C  0.40527843  0.01587494  0.96180939    -0.23500
C705        C  0.38972291  0.97985660  0.95346863     0.19600
C706        C  0.35850873  0.98318370  0.94090281     0.24600
C707        C  0.34210138  0.02249055  0.93634875    -0.23400
C708        C  0.35670172  0.05832302  0.94495763     0.19500
F709        F  0.34211308  0.09687740  0.94073759    -0.13400
F710        F  0.40131997  0.09073891  0.96530959    -0.15700
F711        F  0.34392100  0.94768905  0.93337901    -0.15700
F712        F  0.40470897  0.94121063  0.95732962    -0.13400
C713        C  0.73375512  0.35596884  0.20412781     0.24700
C714        C  0.76865234  0.34037227  0.21323943    -0.23500
C715        C  0.80881243  0.35571975  0.20895271     0.19600
C716        C  0.81383595  0.38499186  0.19562803     0.24600
C717        C  0.77896228  0.39946217  0.18634349    -0.23400
C718        C  0.73891869  0.38507348  0.19086249     0.19500
F719        F  0.70440513  0.39978403  0.18262262    -0.13400
F720        F  0.69432922  0.34301309  0.20789356    -0.15700
F721        F  0.85298216  0.39794361  0.19137650    -0.15700
F722        F  0.84344212  0.34210843  0.21742837    -0.13400
C723        C  0.73100111  0.15285767  0.19951387     0.24700
C724        C  0.76493456  0.16095065  0.21067377    -0.23500
C725        C  0.80292852  0.13978778  0.20776927     0.19600
C726        C  0.80672009  0.11103745  0.19422924     0.24600
C727        C  0.77254624  0.10235234  0.18328291    -0.23400
C728        C  0.73465933  0.12384887  0.18610436     0.19500
F729        F  0.70045948  0.11639834  0.17617286    -0.13400
F730        F  0.69402019  0.17324829  0.20138996    -0.15700
F731        F  0.84443373  0.09266148  0.19164002    -0.15700
F732        F  0.83669981  0.14672764  0.21802412    -0.13400
C733        C  0.76482451  0.37423706  0.31327192     0.24300
C734        C  0.72564811  0.39335693  0.31598236    -0.23500
C735        C  0.69258121  0.38367105  0.30464356     0.19600
C736        C  0.69840748  0.35538371  0.29107723     0.24600
C737        C  0.73742123  0.33570098  0.28854163    -0.23400
C738        C  0.77058166  0.34568761  0.29980599     0.19500
F739        F  0.80874636  0.32759801  0.29798530    -0.13400
F740        F  0.79818441  0.38371300  0.32339268    -0.15700
F741        F  0.66552667  0.34732893  0.28046380    -0.15700
F742        F  0.65402605  0.40054580  0.30690064    -0.13400
C743        C  0.69601146  0.14007193  0.29116048     0.24700
C744        C  0.73592889  0.15622711  0.28710708    -0.23500
C745        C  0.77057909  0.14215924  0.29676710     0.19600
C746        C  0.76554404  0.11297614  0.31004507     0.24600
C747        C  0.72565187  0.09719942  0.31426087    -0.23400
C748        C  0.69095420  0.11101154  0.30458154     0.19500
F749        F  0.65175593  0.09750127  0.30838170    -0.13400
F750        F  0.66153367  0.15263643  0.28231086    -0.15700
F751        F  0.80029046  0.09960858  0.31847598    -0.15700
F752        F  0.80973361  0.15671304  0.29352877    -0.13400
C753        C  0.38333412  0.46549232  0.04557948     0.24700
C754        C  0.40250803  0.50107538  0.03828496    -0.23500
C755        C  0.38745616  0.54103066  0.04293545     0.19600
C756        C  0.35466030  0.54521424  0.05474513     0.24600
C757        C  0.33601480  0.50965402  0.06215908    -0.23400
C758        C  0.35042708  0.46976433  0.05730059     0.19500
F759        F  0.33222737  0.43458382  0.06367144    -0.13400
F760        F  0.39615914  0.42630167  0.04139504    -0.15700
F761        F  0.34239081  0.58424676  0.05940068    -0.15700
F762        F  0.40471295  0.57638575  0.03628055    -0.13400
C763        C  0.63611969  0.54524118  0.05628505     0.24700
C764        C  0.65392699  0.50995426  0.06428532    -0.23500
C765        C  0.63898952  0.46994708  0.05971160     0.19600
C766        C  0.60677188  0.46541707  0.04761558     0.24600
C767        C  0.58892433  0.50078444  0.03960657    -0.23400
C768        C  0.60420385  0.54074921  0.04408854     0.19500
F769        F  0.58815865  0.57592386  0.03680357    -0.13400
F770        F  0.64851896  0.58447799  0.06059053    -0.15700
F771        F  0.59344646  0.42618661  0.04371015    -0.15700
F772        F  0.65615182  0.43484735  0.06659291    -0.13400
C773        C  0.36056828  0.51322302  0.94397359     0.24700
C774        C  0.34864746  0.47422609  0.93727234    -0.23500
C775        C  0.36616824  0.43758940  0.94419936     0.19600
C776        C  0.39563781  0.43995703  0.95752231     0.24600
C777        C  0.40787642  0.47913373  0.96423146    -0.23400
C778        C  0.38971082  0.51571612  0.95731269     0.19500
F779        F  0.39972230  0.55420648  0.96347873    -0.13400
F780        F  0.34314844  0.54912553  0.93793793    -0.15700
F781        F  0.41256669  0.40386253  0.96358759    -0.15700
F782        F  0.35583184  0.39952023  0.93768869    -0.13400
C783        C  0.64807312  0.44835515  0.95177854     0.24700
C784        C  0.64413150  0.47448413  0.93711824    -0.23500
C785        C  0.60993107  0.50231059  0.93629300     0.19600
C786        C  0.58152449  0.50490631  0.94990089     0.24600
C787        C  0.58563119  0.47887880  0.96440943    -0.23400
C788        C  0.61872787  0.45017526  0.96515645     0.19500
F789        F  0.62363769  0.42498846  0.97915696    -0.13400
F790        F  0.68096303  0.42195616  0.95361687    -0.15700
F791        F  0.54913979  0.53225190  0.94864965    -0.15700
F792        F  0.60297343  0.52655950  0.92218818    -0.13400
C793        C  0.86535121  0.01210439  0.44032828     0.24700
C794        C  0.85049507  0.97233997  0.43543923    -0.23500
C795        C  0.86613476  0.93693695  0.44414682     0.19600
C796        C  0.89637765  0.94116374  0.45718329     0.24600
C797        C  0.91182102  0.98099823  0.46187582    -0.23400
C798        C  0.89565380  0.01637226  0.45325503     0.19500
F799        F  0.90904176  0.05550834  0.45725495    -0.13400
F800        F  0.84989392  0.04735154  0.43290880    -0.15700
F801        F  0.91073197  0.90597637  0.46503618    -0.15700
F802        F  0.85322497  0.89792009  0.43972452    -0.13400
C803        C  0.88600787  0.97217628  0.54171782     0.24700
C804        C  0.91015874  0.00704341  0.53673864    -0.23500
C805        C  0.90233345  0.04603410  0.54463126     0.19600
C806        C  0.87127945  0.04987841  0.55724846     0.24600
C807        C  0.84770606  0.01484976  0.56230858    -0.23400
C808        C  0.85523344  0.97606271  0.55440345     0.19500
F809        F  0.83195927  0.94199695  0.55863143    -0.13400
F810        F  0.89151991  0.93432245  0.53411502    -0.15700
F811        F  0.86535995  0.08754300  0.56496717    -0.15700
F812        F  0.92537518  0.08034107  0.54050167    -0.13400
C813        C  0.10655234  0.04848620  0.54355308     0.24700
C814        C  0.09235350  0.00868446  0.53821064    -0.23500
C815        C  0.10945359  0.97297850  0.54630728     0.19600
C816        C  0.13996022  0.97691070  0.55915943     0.24600
C817        C  0.15423855  0.01657112  0.56437518    -0.23400
C818        C  0.13714856  0.05232304  0.55645434     0.19500
F819        F  0.14908271  0.09118520  0.56153836    -0.13400
F820        F  0.09063874  0.08395064  0.53647155    -0.15700
F821        F  0.15636900  0.94154960  0.56613884    -0.15700
F822        F  0.09703586  0.93386659  0.54177278    -0.13400
C823        C  0.12686411  0.01265186  0.43671115     0.24700
C824        C  0.15829650  0.98170806  0.43745240    -0.23500
C825        C  0.15667612  0.95211456  0.45104215     0.19600
C826        C  0.12470087  0.95353358  0.46339746     0.24600
C827        C  0.09427094  0.98518697  0.46280427    -0.23400
C828        C  0.09568660  0.01461862  0.44931616     0.19500
F829        F  0.06604711  0.04488350  0.44799636    -0.13400
F830        F  0.12510660  0.04060805  0.42354325    -0.15700
F831        F  0.12437707  0.92461893  0.47627398    -0.15700
F832        F  0.18651675  0.92228174  0.45282129    -0.13400
C833        C  0.11893586  0.54395386  0.46224323     0.24700
C834        C  0.08406376  0.51761927  0.46040298    -0.23500
C835        C  0.07941442  0.49417274  0.44521303     0.19600
C836        C  0.10903073  0.49719158  0.43197990     0.24600
C837        C  0.14478130  0.52275469  0.43391046    -0.23400
C838        C  0.14933537  0.54604845  0.44927748     0.19500
F839        F  0.18391600  0.56966811  0.45218405    -0.13400
F840        F  0.12458718  0.56626871  0.47698468    -0.15700
F841        F  0.10192114  0.47570554  0.41715832    -0.15700
F842        F  0.04559259  0.46897957  0.44300484    -0.13400
C843        C  0.11883268  0.46037455  0.53908465     0.24700
C844        C  0.10222223  0.49967108  0.53439096    -0.23500
C845        C  0.11962577  0.53584766  0.54204688     0.19600
C846        C  0.15064413  0.53243476  0.55483573     0.24600
C847        C  0.16542257  0.49293008  0.56009310    -0.23400
C848        C  0.14981320  0.45709445  0.55178207     0.19500
F849        F  0.16287178  0.41838177  0.55656211    -0.13400
F850        F  0.10448031  0.42459585  0.53172886    -0.15700
F851        F  0.16645244  0.56787088  0.56198628    -0.15700
F852        F  0.10659009  0.57463223  0.53730404    -0.13400
C853        C  0.89742020  0.52788950  0.54835287     0.24700
C854        C  0.91852887  0.49266442  0.54172311    -0.23500
C855        C  0.90955913  0.45308070  0.54896115     0.19600
C856        C  0.87957360  0.44880604  0.56207711     0.24600
C857        C  0.85795955  0.48393890  0.56839830    -0.23400
C858        C  0.86763149  0.52356919  0.56149204     0.19500
F859        F  0.84706344  0.55826480  0.56693033    -0.13400
F860        F  0.90467893  0.56672044  0.54187112    -0.15700
F861        F  0.87239302  0.41024707  0.56883450    -0.15700
F862        F  0.92991846  0.41828867  0.54346819    -0.13400
C863        C  0.88192120  0.47516645  0.45986862     0.24700
C864        C  0.90287002  0.51141645  0.46570235    -0.23500
C865        C  0.89195773  0.55024077  0.45826366     0.19600
C866        C  0.86203580  0.55260916  0.44508143     0.24600
C867        C  0.84194081  0.51634591  0.43900301    -0.23400
C868        C  0.85196214  0.47762760  0.44664946     0.19500
F869        F  0.83219625  0.44207983  0.44157064    -0.13400
F870        F  0.89013047  0.43717665  0.46697202    -0.15700
F871        F  0.85414863  0.59039947  0.43775597    -0.15700
F872        F  0.91107497  0.58612751  0.46333871    -0.13400
C873        C  0.30091383  0.64081256  0.70919974     0.24700
C874        C  0.26125428  0.65279592  0.71550116    -0.23500
C875        C  0.22555195  0.63205694  0.70902329     0.19600
C876        C  0.22928135  0.60161735  0.69612224     0.24600
C877        C  0.26874893  0.59060955  0.68953912    -0.23400
C878        C  0.30457392  0.60994356  0.69644788     0.19500
F879        F  0.34316971  0.60049872  0.69027560    -0.13400
F880        F  0.33631253  0.65978743  0.71493564    -0.15700
F881        F  0.19413533  0.58248152  0.69021541    -0.15700
F882        F  0.18678855  0.64108891  0.71513316    -0.13400
C883        C  0.26994695  0.64991179  0.79906723     0.24700
C884        C  0.23446380  0.66679638  0.79078690    -0.23500
C885        C  0.19437848  0.65527962  0.79674554     0.19600
C886        C  0.19000558  0.62698063  0.81038905     0.24600
C887        C  0.22549902  0.60974586  0.81839972    -0.23400
C888        C  0.26547572  0.62166271  0.81266515     0.19500
F889        F  0.30050300  0.60491912  0.81978602    -0.13400
F890        F  0.30927574  0.66017976  0.79394657    -0.15700
F891        F  0.15095582  0.61728627  0.81602395    -0.15700
F892        F  0.15922281  0.67160418  0.78955432    -0.13400
C893        C  0.27225272  0.85868368  0.79589577     0.24700
C894        C  0.23727531  0.84567699  0.78618336    -0.23500
C895        C  0.19832174  0.86482077  0.78944810     0.19600
C896        C  0.19437568  0.89544982  0.80227329     0.24600
C897        C  0.22932292  0.90812895  0.81205949    -0.23400
C898        C  0.26840598  0.88965319  0.80851231     0.19500
F899        F  0.30348121  0.90187424  0.81701707    -0.13400
F900        F  0.31048300  0.84120158  0.79340957    -0.15700
F901        F  0.15586095  0.91151988  0.80543262    -0.15700
F902        F  0.16365932  0.85373446  0.78038711    -0.13400
C903        C  0.30368706  0.85537467  0.70867604     0.24700
C904        C  0.26422392  0.83722828  0.71199746    -0.23500
C905        C  0.22930581  0.85151475  0.70257791     0.19600
C906        C  0.23362917  0.88323641  0.69032377     0.24600
C907        C  0.27305158  0.90100913  0.68689112    -0.23400
C908        C  0.30799447  0.88693747  0.69627662     0.19500
F909        F  0.34669338  0.90271667  0.69313251    -0.13400
F910        F  0.33837404  0.84266493  0.71735245    -0.15700
F911        F  0.19877585  0.89714357  0.68209949    -0.15700
F912        F  0.19066662  0.83491972  0.70513810    -0.13400
C913        C  0.72586957  0.65076174  0.80002479     0.24700
C914        C  0.76037710  0.66573488  0.79049476    -0.23500
C915        C  0.80089747  0.65296469  0.79547941     0.19600
C916        C  0.80669086  0.62624745  0.80959948     0.24600
C917        C  0.77223702  0.61133780  0.81906429    -0.23400
C918        C  0.73173675  0.62386788  0.81409066     0.19500
F919        F  0.69745440  0.60936097  0.82254115    -0.13400
F920        F  0.68618377  0.66196798  0.79579834    -0.15700
F921        F  0.84632299  0.61616105  0.81433400    -0.15700
F922        F  0.83531708  0.66680499  0.78692437    -0.13400
C923        C  0.68594325  0.64457976  0.70988498     0.24700
C924        C  0.72631427  0.65856727  0.71458245    -0.23500
C925        C  0.76113292  0.64187767  0.70579390     0.19600
C926        C  0.75571646  0.61385974  0.69218744     0.24600
C927        C  0.71545412  0.60173257  0.68689694    -0.23400
C928        C  0.68061883  0.61637776  0.69618542     0.19500
F929        F  0.64127559  0.60474580  0.69160856    -0.13400
F930        F  0.65142363  0.65874315  0.71824705    -0.15700
F931        F  0.79024145  0.59803774  0.68435984    -0.15700
F932        F  0.80080506  0.65278331  0.71018152    -0.13400
C933        C  0.69051702  0.85283509  0.70660167     0.24700
C934        C  0.73046013  0.83881589  0.71183470    -0.23500
C935        C  0.76588121  0.85420365  0.70297494     0.19600
C936        C  0.76146875  0.88221898  0.68921491     0.24600
C937        C  0.72164504  0.89579348  0.68394237    -0.23400
C938        C  0.68623962  0.88111542  0.69286090     0.19500
F939        F  0.64725253  0.89297813  0.68790439    -0.13400
F940        F  0.65533019  0.83876112  0.71453481    -0.15700
F941        F  0.79648196  0.89685720  0.68132083    -0.15700
F942        F  0.80512697  0.84233288  0.70756553    -0.13400
C943        C  0.73039918  0.85933188  0.79719266     0.24700
C944        C  0.76444320  0.84249012  0.78797718    -0.23500
C945        C  0.80528589  0.85541180  0.79249833     0.19600
C946        C  0.81176342  0.88414844  0.80589595     0.24600
C947        C  0.77767477  0.90067488  0.81510113    -0.23400
C948        C  0.73691938  0.88817020  0.81046082     0.19500
F949        F  0.70291009  0.90446265  0.81849458    -0.13400
F950        F  0.69045096  0.84787823  0.79351440    -0.15700
F951        F  0.85158788  0.89457908  0.81022937    -0.15700
F952        F  0.83927367  0.83972108  0.78423377    -0.13400
loop_ 
_geom_bond_atom_site_label_1 
_geom_bond_atom_site_label_2 
_geom_bond_distance 
_geom_bond_site_symmetry_2 
_ccdc_geom_bond_type 
O1           Cu9   2.002       .  S
O1           C11   1.277       .  A
O2           Cu9   2.006       .  S
O2           C12   1.278       .  A
O3           Cu9   2.004       .  S
O3           C13   1.277       .  A
O4           Cu9   2.001       .  S
O4           C14   1.278       .  A
O5          Cu10   2.014       .  S
O5           C14   1.278       .  A
O6          Cu10   2.010       .  S
O6           C13   1.279       .  A
O7          Cu10   2.017       .  S
O7           C12   1.279       .  A
O8          Cu10   2.012       .  S
O8           C11   1.279       .  A
Cu9         Cu10   2.364       .  S
C11         C914   1.489       .  S
C12         C934   1.491       .  S
C13         C944   1.489       .  S
C14         C924   1.489       .  S
O15         Cu23   1.997       .  S
O15          C25   1.276       .  A
O16         Cu23   1.992       .  S
O16          C26   1.276       .  A
O17         Cu23   2.013       .  S
O17          C27   1.278       .  A
O18         Cu23   2.007       .  S
O18          C28   1.278       .  A
O19         Cu24   2.011       .  S
O19          C28   1.278       .  A
O20         Cu24   2.014       .  S
O20          C27   1.279       .  A
O21         Cu24   1.999       .  S
O21          C26   1.277       .  A
O22         Cu24   2.000       .  S
O22          C25   1.278       .  A
Cu23        Cu24   2.365       .  S
C25         C904   1.483       .  S
C26         C884   1.481       .  S
C27         C874   1.492       .  S
C28         C894   1.490       .  S
O29         Cu37   2.017       .  S
O29          C39   1.278       .  A
O30         Cu37   2.019   1_655  S
O30          C40   1.280       .  A
O31         Cu37   2.016   1_655  S
O31          C41   1.279       .  A
O32         Cu37   2.009       .  S
O32          C42   1.278       .  A
O33         Cu38   2.007       .  S
O33          C42   1.277       .  A
O34         Cu38   2.015   1_655  S
O34          C41   1.278       .  A
O35         Cu38   2.016   1_655  S
O35          C40   1.279       .  A
O36         Cu38   2.016       .  S
O36          C39   1.280       .  A
Cu37        Cu38   2.366       .  S
C39         C844   1.495       .  S
C40         C864   1.494       .  S
C41         C854   1.494       .  S
C42         C834   1.473       .  S
N43          N44   1.320       .  A
N43          C47   1.341       .  A
N43         Cu51   2.073       .  S
N44          C45   1.346       .  A
N44         Cu50   2.062       .  S
C45          C46   1.385       .  A
C45          H48   1.082       .  S
C46         C927   1.480       .  S
C46          C47   1.386       .  A
C47          H49   1.082       .  S
Cu50         N53   2.062       .  S
Cu51         N61   2.074       .  S
Cu52         N54   2.092       .  S
Cu52         N60   2.091       .  S
N53          N54   1.324       .  A
N53          C57   1.343       .  A
N54          C55   1.347       .  A
C55          C56   1.386       .  A
C55          H58   1.082       .  S
C56         C587   1.484       .  S
C56          C57   1.379       .  A
C57          H59   1.082       .  S
N60          N61   1.322       .  A
N60          C64   1.348       .  A
N61          C62   1.345       .  A
C62          C63   1.386       .  A
C62          H65   1.081       .  S
C63         C857   1.490       .  S
C63          C64   1.390       .  A
C64          H66   1.082       .  S
N67          N68   1.322       .  A
N67          C71   1.345       .  A
N67         Cu75   2.078       .  S
N68          C69   1.347       .  A
N68         Cu74   2.083       .  S
C69          C70   1.387       .  A
C69          H72   1.082       .  S
C70         C877   1.485       .  S
C70          C71   1.385       .  A
C71          H73   1.082       .  S
Cu74         N77   2.083       .  S
Cu75         N85   2.079       .  S
Cu76         N78   2.089       .  S
Cu76         N84   2.089       .  S
N77          N78   1.324       .  A
N77          C81   1.347       .  A
N78          C79   1.348       .  A
C79          C80   1.385       .  A
C79          H82   1.082       .  S
C80         C586   1.487       .  S
C80          C81   1.383       .  A
C81          H83   1.082       .  S
N84          N85   1.322       .  A
N84          C88   1.347       .  A
N85          C86   1.347       .  A
C86          C87   1.386       .  A
C86          H89   1.082       .  S
C87         C847   1.487       .  S
C87          C88   1.389       .  A
C88          H90   1.082       .  S
O91         Cu99   2.014       .  S
O91         C101   1.279       .  A
O92         Cu99   2.009   1_655  S
O92         C102   1.279   1_565  A
O93         Cu99   2.016   1_655  S
O93         C103   1.278       .  A
O94         Cu99   2.011       .  S
O94         C104   1.278   1_565  A
O95        Cu100   2.020       .  S
O95         C104   1.279       .  A
O96        Cu100   2.016   1_655  S
O96         C103   1.280   1_545  A
O97        Cu100   1.997   1_655  S
O97         C102   1.276       .  A
O98        Cu100   1.998       .  S
O98         C101   1.277   1_545  A
Cu99       Cu100   2.366   1_565  S
C101        C827   1.480       .  S
C102        C804   1.482       .  S
C103        C797   1.495       .  S
C104        C814   1.494       .  S
N105        N106   1.320       .  A
N105        C109   1.339       .  A
N105       Cu113   2.058       .  S
N106        C107   1.347       .  A
N106       Cu112   2.074   1_565  S
C107        C108   1.388       .  A
C107        H110   1.082       .  S
C108        C907   1.480       .  S
C108        C109   1.382       .  A
C109        H111   1.081       .  S
Cu112       N115   2.075       .  S
Cu113       N123   2.059   1_565  S
Cu114       N116   2.077       .  S
Cu114       N122   2.077       .  S
N115        N116   1.325       .  A
N115        C119   1.345       .  A
N116        C117   1.344       .  A
C117        C118   1.379       .  A
C117        H120   1.082       .  S
C118        C585   1.478       .  S
C118        C119   1.381       .  A
C119        H121   1.082       .  S
N122        N123   1.319       .  A
N122        C126   1.347       .  A
N123        C124   1.342   1_545  A
C124        C125   1.385   1_565  A
C124        H127   1.082       .  S
C125        C817   1.485       .  S
C125        C126   1.389       .  A
C126        H128   1.082       .  S
N129        N130   1.320       .  A
N129        C133   1.343       .  A
N129       Cu137   2.067       .  S
N130        C131   1.346       .  A
N130       Cu136   2.073   1_565  S
C131        C132   1.387       .  A
C131        H134   1.082       .  S
C132        C937   1.482       .  S
C132        C133   1.385       .  A
C133        H135   1.082       .  S
Cu136       N139   2.074       .  S
Cu137       N147   2.067   1_565  S
Cu138       N140   2.069       .  S
Cu138       N146   2.069       .  S
N139        N140   1.323       .  A
N139        C143   1.344       .  A
N140        C141   1.345       .  A
C141        C142   1.381       .  A
C141        H144   1.082       .  S
C142        C588   1.479       .  S
C142        C143   1.381       .  A
C143        H145   1.082       .  S
N146        N147   1.322       .  A
N146        C150   1.345       .  A
N147        C148   1.342   1_545  A
C148        C149   1.382   1_565  A
C148        H151   1.082       .  S
C149        C807   1.474       .  S
C149        C150   1.384       .  A
C150        H152   1.082       .  S
O153       Cu161   1.996       .  S
O153        C163   1.277       .  A
O154       Cu161   1.988   1_556  S
O154        C164   1.276       .  A
O155       Cu161   1.993       .  S
O155        C165   1.276       .  A
O156       Cu161   1.989   1_556  S
O156        C166   1.276       .  A
O157       Cu162   2.009   1_556  S
O157        C166   1.278       .  A
O158       Cu162   2.011       .  S
O158        C165   1.279       .  A
O159       Cu162   2.009   1_556  S
O159        C164   1.278       .  A
O160       Cu162   2.010       .  S
O160        C163   1.278       .  A
Cu161      Cu162   2.368       .  S
C163        C767   1.487       .  S
C164        C777   1.482       .  S
C165        C754   1.486       .  S
C166        C787   1.470       .  S
N167        N168   1.321       .  A
N167        C171   1.343       .  A
N167       Cu175   2.060       .  S
N168        C169   1.346       .  A
N168       Cu174   2.082       .  S
C169        C170   1.389       .  A
C169        H172   1.081       .  S
C170        C917   1.484       .  S
C170        C171   1.384       .  A
C171        H173   1.081       .  S
Cu174       N177   2.083       .  S
Cu175       N185   2.060       .  S
Cu176       N178   2.067       .  S
Cu176       N184   2.066       .  S
N177        N178   1.323       .  A
N177        C181   1.345       .  A
N178        C179   1.345       .  A
C179        C180   1.382       .  A
C179        H182   1.082       .  S
C180        C620   1.485       .  S
C180        C181   1.385       .  A
C181        H183   1.082       .  S
N184        N185   1.319       .  A
N184        C188   1.343       .  A
N185        C186   1.341       .  A
C186        C187   1.389       .  A
C186        H189   1.080       .  S
C187        C784   1.488       .  S
C187        C188   1.390       .  A
C188        H190   1.080       .  S
N191        N192   1.320       .  A
N191        C195   1.340       .  A
N191       Cu199   2.053       .  S
N192        C193   1.343       .  A
N192       Cu198   2.061       .  S
C193        C194   1.384       .  A
C193        H196   1.082       .  S
C194        C887   1.474       .  S
C194        C195   1.383       .  A
C195        H197   1.082       .  S
Cu198       N201   2.062       .  S
Cu199       N209   2.054       .  S
Cu200       N202   2.058       .  S
Cu200       N208   2.058       .  S
N201        N202   1.323       .  A
N201        C205   1.343       .  A
N202        C203   1.341       .  A
C203        C204   1.378       .  A
C203        H206   1.082       .  S
C204        C619   1.471       .  S
C204        C205   1.379       .  A
C205        H207   1.082       .  S
N208        N209   1.320       .  A
N208        C212   1.343       .  A
N209        C210   1.340       .  A
C210        C211   1.381       .  A
C210        H213   1.082       .  S
C211        C774   1.471       .  S
C211        C212   1.383       .  A
C212        H214   1.082       .  S
O215       Cu223   2.001       .  S
O215        C225   1.277       .  A
O216       Cu223   1.999       .  S
O216        C226   1.276       .  A
O217       Cu223   2.004       .  S
O217        C227   1.278       .  A
O218       Cu223   2.011       .  S
O218        C228   1.278       .  A
O219       Cu224   2.005       .  S
O219        C228   1.278       .  A
O220       Cu224   2.005       .  S
O220        C227   1.277       .  A
O221       Cu224   2.016       .  S
O221        C226   1.279       .  A
O222       Cu224   2.017       .  S
O222        C225   1.279       .  A
Cu223      Cu224   2.364       .  S
C225        C724   1.489       .  S
C226        C737   1.488       .  S
C227        C714   1.487       .  S
C228        C744   1.490       .  S
O229       Cu237   2.004   1_554  S
O229        C239   1.278       .  A
O230       Cu237   2.000       .  S
O230        C240   1.277       .  A
O231       Cu237   2.001   1_554  S
O231        C241   1.277   1_545  A
O232       Cu237   2.002       .  S
O232        C242   1.277       .  A
O233       Cu238   2.006       .  S
O233        C242   1.278   1_565  A
O234       Cu238   2.008   1_554  S
O234        C241   1.278       .  A
O235       Cu238   2.002       .  S
O235        C240   1.277   1_565  A
O236       Cu238   2.004   1_554  S
O236        C239   1.277   1_565  A
Cu237      Cu238   2.366   1_545  S
C239        C677   1.486   1_545  S
C240        C704   1.485       .  S
C241        C687   1.484       .  S
C242        C697   1.483       .  S
N243        N244   1.320       .  A
N243        C247   1.341       .  A
N243       Cu251   2.057   1_545  S
N244        C245   1.345       .  A
N244       Cu250   2.072       .  S
C245        C246   1.387       .  A
C245        H248   1.082       .  S
C246        C707   1.478       .  S
C246        C247   1.383       .  A
C247        H249   1.082   1_545  S
Cu250       N253   2.073       .  S
Cu251       N261   2.058       .  S
Cu252       N254   2.085       .  S
Cu252       N260   2.085   1_545  S
N253        N254   1.324       .  A
N253        C257   1.345       .  A
N254        C255   1.346       .  A
C255        C256   1.383       .  A
C255        H258   1.082       .  S
C256        C622   1.481       .  S
C256        C257   1.381       .  A
C257        H259   1.082       .  S
N260        N261   1.320       .  A
N260        C264   1.347       .  A
N261        C262   1.341       .  A
C262        C263   1.386       .  A
C262        H265   1.081       .  S
C263        C897   1.489       .  S
C263        C264   1.392       .  A
C264        H266   1.081       .  S
N267        N268   1.319       .  A
N267        C271   1.341       .  A
N267       Cu275   2.057   1_545  S
N268        C269   1.345       .  A
N268       Cu274   2.066       .  S
C269        C270   1.385       .  A
C269        H272   1.082       .  S
C270        C694   1.475       .  S
C270        C271   1.382       .  A
C271        H273   1.082   1_545  S
Cu274       N277   2.067       .  S
Cu275       N285   2.057       .  S
Cu276       N278   2.087       .  S
Cu276       N284   2.086   1_545  S
N277        N278   1.324       .  A
N277        C281   1.344       .  A
N278        C279   1.346       .  A
C279        C280   1.385       .  A
C279        H282   1.082       .  S
C280        C621   1.483       .  S
C280        C281   1.380       .  A
C281        H283   1.082       .  S
N284        N285   1.321       .  A
N284        C288   1.349       .  A
N285        C286   1.340       .  A
C286        C287   1.383       .  A
C286        H289   1.081       .  S
C287        C947   1.485       .  S
C287        C288   1.391       .  A
C288        H290   1.082       .  S
O291       Cu299   2.010       .  S
O291        C301   1.279       .  A
O292       Cu299   2.014       .  S
O292        C302   1.278       .  A
O293       Cu299   2.012       .  S
O293        C303   1.279       .  A
O294       Cu299   2.011       .  S
O294        C304   1.278       .  A
O295       Cu300   2.000       .  S
O295        C304   1.277       .  A
O296       Cu300   2.001       .  S
O296        C303   1.277       .  A
O297       Cu300   2.000       .  S
O297        C302   1.278       .  A
O298       Cu300   2.003       .  S
O298        C301   1.277       .  A
Cu299      Cu300   2.365       .  S
C301        C634   1.488       .  S
C302        C667   1.486       .  S
C303        C647   1.487       .  S
C304        C657   1.486       .  S
N305        N306   1.321       .  A
N305        C309   1.342       .  A
N305       Cu313   2.058       .  S
N306        C307   1.346       .  A
N306       Cu312   2.082   1_545  S
C307        C308   1.389       .  A
C307        H310   1.081       .  S
C308        C644   1.483       .  S
C308        C309   1.384       .  A
C309        H311   1.081       .  S
Cu312       N315   2.083       .  S
Cu313       N323   2.058   1_545  S
Cu314       N316   2.080       .  S
Cu314       N322   2.079       .  S
N315        N316   1.324       .  A
N315        C319   1.347       .  A
N316        C317   1.346       .  A
C317        C318   1.382       .  A
C317        H320   1.082       .  S
C318        C517   1.483       .  S
C318        C319   1.383       .  A
C319        H321   1.082       .  S
N322        N323   1.321       .  A
N322        C326   1.346       .  A
N323        C324   1.342   1_565  A
C324        C325   1.381   1_545  A
C324        H327   1.082       .  S
C325        C684   1.477       .  S
C325        C326   1.386       .  A
C326        H328   1.082       .  S
N329        N330   1.320       .  A
N329        C333   1.341   1_565  A
N329       Cu337   2.057   1_565  S
N330        C331   1.346       .  A
N330       Cu336   2.077       .  S
C331        C332   1.389       .  A
C331        H334   1.081       .  S
C332        C674   1.482       .  S
C332        C333   1.383   1_565  A
C333        H335   1.081       .  S
Cu336       N339   2.078       .  S
Cu337       N347   2.057       .  S
Cu338       N340   2.081       .  S
Cu338       N346   2.081   1_565  S
N339        N340   1.324       .  A
N339        C343   1.346       .  A
N340        C341   1.345       .  A
C341        C342   1.381       .  A
C341        H344   1.082       .  S
C342        C518   1.481       .  S
C342        C343   1.381       .  A
C343        H345   1.082       .  S
N346        N347   1.319       .  A
N346        C350   1.346       .  A
N347        C348   1.342       .  A
C348        C349   1.387       .  A
C348        H351   1.081       .  S
C349        C727   1.490       .  S
C349        C350   1.392       .  A
C350        H352   1.081       .  S
N353        N354   1.320       .  A
N353        C357   1.341       .  A
N353       Cu361   2.057       .  S
N354        C355   1.346       .  A
N354       Cu360   2.084       .  S
C355        C356   1.391       .  A
C355        H358   1.081       .  S
C356        C764   1.486       .  S
C356        C357   1.384       .  A
C357        H359   1.081       .  S
Cu360       N363   2.086       .  S
Cu361       N371   2.057       .  S
Cu362       N364   2.071       .  S
Cu362       N370   2.070       .  S
N363        N364   1.324       .  A
N363        C367   1.347       .  A
N364        C365   1.344       .  A
C365        C366   1.380       .  A
C365        H368   1.082       .  S
C366        C519   1.484       .  S
C366        C367   1.384       .  A
C367        H369   1.082       .  S
N370        N371   1.320       .  A
N370        C374   1.346       .  A
N371        C372   1.340       .  A
C372        C373   1.382       .  A
C372        H375   1.082       .  S
C373        C717   1.476       .  S
C373        C374   1.386       .  A
C374        H376   1.082       .  S
N377        N378   1.320       .  A
N377        C381   1.340       .  A
N377       Cu385   2.049       .  S
N378        C379   1.347       .  A
N378       Cu384   2.079       .  S
C379        C380   1.387       .  A
C379        H382   1.082       .  S
C380        C637   1.476       .  S
C380        C381   1.380       .  A
C381        H383   1.082       .  S
Cu384       N387   2.081       .  S
Cu385       N395   2.048       .  S
Cu386       N388   2.083       .  S
Cu386       N394   2.082       .  S
N387        N388   1.325       .  A
N387        C391   1.346       .  A
N388        C389   1.345       .  A
C389        C390   1.382       .  A
C389        H392   1.082       .  S
C390        C520   1.483       .  S
C390        C391   1.382       .  A
C391        H393   1.082       .  S
N394        N395   1.320       .  A
N394        C398   1.347       .  A
N395        C396   1.339       .  A
C396        C397   1.381       .  A
C396        H399   1.082       .  S
C397        C757   1.480       .  S
C397        C398   1.390       .  A
C398        H400   1.081       .  S
N401        N402   1.321       .  A
N401        C405   1.344       .  A
N401       Cu409   2.082       .  S
N402        C403   1.344       .  A
N402       Cu408   2.064   1_545  S
C403        C404   1.385       .  A
C403        H406   1.081       .  S
C404        C664   1.486       .  S
C404        C405   1.389       .  A
C405        H407   1.081       .  S
Cu408       N411   2.064       .  S
Cu409       N419   2.082   1_545  S
Cu410       N412   2.064       .  S
Cu410       N418   2.064       .  S
N411        N412   1.322       .  A
N411        C415   1.343       .  A
N412        C413   1.343       .  A
C413        C414   1.380       .  A
C413        H416   1.082       .  S
C414        C551   1.474       .  S
C414        C415   1.380       .  A
C415        H417   1.082       .  S
N418        N419   1.319       .  A
N418        C422   1.343       .  A
N419        C420   1.344   1_565  A
C420        C421   1.393   1_545  A
C420        H423   1.080       .  S
C421        C824   1.495       .  S
C421        C422   1.389       .  A
C422        H424   1.080       .  S
N425        N426   1.320       .  A
N425        C429   1.343       .  A
N425       Cu433   2.068   1_565  S
N426        C427   1.348       .  A
N426       Cu432   2.082       .  S
C427        C428   1.391       .  A
C427        H430   1.081       .  S
C428        C794   1.490       .  S
C428        C429   1.387       .  A
C429        H431   1.081   1_565  S
Cu432       N435   2.082       .  S
Cu433       N443   2.068       .  S
Cu434       N436   2.080       .  S
Cu434       N442   2.079   1_565  S
N435        N436   1.325       .  A
N435        C439   1.345       .  A
N436        C437   1.346       .  A
C437        C438   1.382       .  A
C437        H440   1.082       .  S
C438        C552   1.481       .  S
C438        C439   1.382       .  A
C439        H441   1.082       .  S
N442        N443   1.320       .  A
N442        C446   1.347       .  A
N443        C444   1.341       .  A
C444        C445   1.387       .  A
C444        H447   1.081       .  S
C445        C747   1.489       .  S
C445        C446   1.391       .  A
C446        H448   1.081       .  S
N449        N450   1.321       .  A
N449        C453   1.342       .  A
N449       Cu457   2.071       .  S
N450        C451   1.346       .  A
N450       Cu456   2.076       .  S
C451        C452   1.390       .  A
C451        H454   1.081       .  S
C452        C734   1.488       .  S
C452        C453   1.387       .  A
C453        H455   1.081       .  S
Cu456       N459   2.077       .  S
Cu457       N467   2.072       .  S
Cu458       N460   2.083       .  S
Cu458       N466   2.084       .  S
N459        N460   1.324       .  A
N459        C463   1.346       .  A
N460        C461   1.346       .  A
C461        C462   1.383       .  A
C461        H464   1.082       .  S
C462        C553   1.481       .  S
C462        C463   1.381       .  A
C463        H465   1.082       .  S
N466        N467   1.321       .  A
N466        C470   1.346       .  A
N467        C468   1.345       .  A
C468        C469   1.386       .  A
C468        H471   1.082       .  S
C469        C867   1.487       .  S
C469        C470   1.389       .  A
C470        H472   1.082       .  S
N473        N474   1.321       .  A
N473        C477   1.343       .  A
N473       Cu481   2.067       .  S
N474        C475   1.345       .  A
N474       Cu480   2.071       .  S
C475        C476   1.384       .  A
C475        H478   1.082       .  S
C476        C654   1.477       .  S
C476        C477   1.383       .  A
C477        H479   1.082       .  S
Cu480       N483   2.071       .  S
Cu481       N491   2.067       .  S
Cu482       N484   2.071       .  S
Cu482       N490   2.070       .  S
N483        N484   1.323       .  A
N483        C487   1.345       .  A
N484        C485   1.344       .  A
C485        C486   1.382       .  A
C485        H488   1.082       .  S
C486        C554   1.478       .  S
C486        C487   1.381       .  A
C487        H489   1.082       .  S
N490        N491   1.320       .  A
N490        C494   1.344       .  A
N491        C492   1.342       .  A
C492        C493   1.388       .  A
C492        H495   1.080       .  S
C493        C837   1.489       .  S
C493        C494   1.389       .  A
C494        H496   1.081       .  S
N497        C502   1.353   1_455  A
N497        C501   1.354       .  A
N497        H529   1.039   1_455  S
N498        C505   1.353       .  A
N498        C506   1.352       .  A
N499        C504   1.355       .  A
N499        C503   1.355   1_655  A
N499        H530   1.039       .  S
N500        C507   1.353       .  A
N500        C508   1.353       .  A
C501        C509   1.387       .  A
C501        C517   1.415       .  A
C502        C518   1.415       .  A
C502        C510   1.387       .  A
C503        C511   1.387       .  A
C503        C520   1.418       .  A
C504        C519   1.419       .  A
C504        C512   1.388       .  A
C505        C517   1.414       .  A
C505        C513   1.386       .  A
C506        C520   1.415       .  A
C506        C514   1.387       .  A
C507        C515   1.386       .  A
C507        C518   1.414       .  A
C508        C516   1.387       .  A
C508        C519   1.414       .  A
C509        C510   1.375   1_455  A
C509        H521   1.082       .  S
C510        H522   1.082       .  S
C511        C512   1.374   1_455  A
C511        H523   1.082       .  S
C512        H524   1.082       .  S
C513        C514   1.371       .  A
C513        H525   1.082       .  S
C514        H526   1.082       .  S
C515        C516   1.371       .  A
C515        H527   1.082       .  S
C516        H528   1.082       .  S
N531        C536   1.352       .  A
N531        C535   1.351       .  A
N531        H563   1.039       .  S
N532        C539   1.350       .  A
N532        C540   1.350       .  A
N533        C538   1.353       .  A
N533        C537   1.353       .  A
N533        H564   1.039       .  S
N534        C541   1.352       .  A
N534        C542   1.351       .  A
C535        C543   1.387       .  A
C535        C551   1.411       .  A
C536        C552   1.412       .  A
C536        C544   1.387       .  A
C537        C545   1.387       .  A
C537        C554   1.413       .  A
C538        C553   1.414       .  A
C538        C546   1.387       .  A
C539        C551   1.408       .  A
C539        C547   1.386       .  A
C540        C554   1.409       .  A
C540        C548   1.386       .  A
C541        C549   1.386       .  A
C541        C552   1.411       .  A
C542        C550   1.386       .  A
C542        C553   1.411       .  A
C543        C544   1.376       .  A
C543        H555   1.082       .  S
C544        H556   1.082       .  S
C545        C546   1.376       .  A
C545        H557   1.082       .  S
C546        H558   1.082       .  S
C547        C548   1.370       .  A
C547        H559   1.082       .  S
C548        H560   1.082       .  S
C549        C550   1.373       .  A
C549        H561   1.082       .  S
C550        H562   1.082       .  S
N565        C570   1.354       .  A
N565        C569   1.353       .  A
N565        H597   1.040       .  S
N566        C573   1.351       .  A
N566        C574   1.351       .  A
N567        C572   1.352       .  A
N567        C571   1.353       .  A
N567        H598   1.041       .  S
N568        C575   1.355       .  A
N568        C576   1.354       .  A
C569        C577   1.388       .  A
C569        C585   1.416       .  A
C570        C586   1.416       .  A
C570        C578   1.387       .  A
C571        C579   1.387       .  A
C571        C588   1.413       .  A
C572        C587   1.415       .  A
C572        C580   1.388       .  A
C573        C585   1.412       .  A
C573        C581   1.387       .  A
C574        C588   1.411       .  A
C574        C582   1.386       .  A
C575        C583   1.385       .  A
C575        C586   1.416       .  A
C576        C584   1.387       .  A
C576        C587   1.418       .  A
C577        C578   1.375       .  A
C577        H589   1.082       .  S
C578        H590   1.082       .  S
C579        C580   1.374       .  A
C579        H591   1.082       .  S
C580        H592   1.082       .  S
C581        C582   1.370       .  A
C581        H593   1.082       .  S
C582        H594   1.082       .  S
C583        C584   1.371       .  A
C583        H595   1.082       .  S
C584        H596   1.082       .  S
N599        C604   1.353       .  A
N599        C603   1.351   1_655  A
N599        H631   1.039       .  S
N600        C607   1.349       .  A
N600        C608   1.352       .  A
N601        C606   1.352       .  A
N601        C605   1.354   1_655  A
N601        H632   1.039       .  S
N602        C609   1.354       .  A
N602        C610   1.353       .  A
C603        C611   1.388       .  A
C603        C619   1.412       .  A
C604        C620   1.412       .  A
C604        C612   1.387       .  A
C605        C613   1.386       .  A
C605        C622   1.412       .  A
C606        C621   1.413       .  A
C606        C614   1.387       .  A
C607        C619   1.411       .  A
C607        C615   1.387       .  A
C608        C622   1.410       .  A
C608        C616   1.385       .  A
C609        C617   1.385       .  A
C609        C620   1.414       .  A
C610        C618   1.387       .  A
C610        C621   1.415       .  A
C611        C612   1.372   1_455  A
C611        H623   1.082       .  S
C612        H624   1.082       .  S
C613        C614   1.373   1_455  A
C613        H625   1.082       .  S
C614        H626   1.082       .  S
C615        C616   1.372       .  A
C615        H627   1.082       .  S
C616        H628   1.082       .  S
C617        C618   1.372       .  A
C617        H629   1.082       .  S
C618        H630   1.082       .  S
C633        C634   1.413       .  A
C633        C638   1.399       .  A
C633        F640   1.358       .  S
C634        C635   1.411       .  A
C635        C636   1.397       .  A
C635        F642   1.358       .  S
C636        C637   1.405       .  A
C636        F641   1.358       .  S
C637        C638   1.403       .  A
C638        F639   1.358       .  S
C643        C644   1.408       .  A
C643        C648   1.399       .  A
C643        F650   1.358       .  S
C644        C645   1.406       .  A
C645        C646   1.398       .  A
C645        F652   1.357       .  S
C646        C647   1.411       .  A
C646        F651   1.358       .  S
C647        C648   1.410       .  A
C648        F649   1.358       .  S
C653        C654   1.404       .  A
C653        C658   1.397       .  A
C653        F660   1.358       .  S
C654        C655   1.404       .  A
C655        C656   1.399       .  A
C655        F662   1.358       .  S
C656        C657   1.411       .  A
C656        F661   1.358       .  S
C657        C658   1.411       .  A
C658        F659   1.358       .  S
C663        C664   1.406       .  A
C663        C668   1.395       .  A
C663        F670   1.357       .  S
C664        C665   1.410       .  A
C665        C666   1.402       .  A
C665        F672   1.358       .  S
C666        C667   1.410       .  A
C666        F671   1.358       .  S
C667        C668   1.409       .  A
C668        F669   1.358       .  S
C673        C674   1.406       .  A
C673        C678   1.398       .  A
C673        F680   1.357       .  S
C674        C675   1.407   1_565  A
C675        C676   1.397       .  A
C675        F682   1.358       .  S
C676        C677   1.410   1_545  A
C676        F681   1.358       .  S
C677        C678   1.411       .  A
C678        F679   1.358       .  S
C683        C684   1.405       .  A
C683        C688   1.399       .  A
C683        F690   1.358       .  S
C684        C685   1.404   1_565  A
C685        C686   1.397       .  A
C685        F692   1.358       .  S
C686        C687   1.410   1_545  A
C686        F691   1.358       .  S
C687        C688   1.410       .  A
C688        F689   1.358       .  S
C693        C694   1.404       .  A
C693        C698   1.399       .  A
C693        F700   1.358       .  S
C694        C695   1.405   1_545  A
C695        C696   1.396       .  A
C695        F702   1.358       .  S
C696        C697   1.409   1_565  A
C696        F701   1.358       .  S
C697        C698   1.411       .  A
C698        F699   1.358       .  S
C703        C704   1.411       .  A
C703        C708   1.397       .  A
C703        F710   1.358       .  S
C704        C705   1.410   1_545  A
C705        C706   1.397       .  A
C705        F712   1.358       .  S
C706        C707   1.406   1_565  A
C706        F711   1.358       .  S
C707        C708   1.405       .  A
C708        F709   1.357       .  S
C713        C714   1.410       .  A
C713        C718   1.394       .  A
C713        F720   1.358       .  S
C714        C715   1.413       .  A
C715        C716   1.401       .  A
C715        F722   1.358       .  S
C716        C717   1.404       .  A
C716        F721   1.358       .  S
C717        C718   1.404       .  A
C718        F719   1.358       .  S
C723        C724   1.410       .  A
C723        C728   1.398       .  A
C723        F730   1.358       .  S
C724        C725   1.409       .  A
C725        C726   1.400       .  A
C725        F732   1.358       .  S
C726        C727   1.409       .  A
C726        F731   1.356       .  S
C727        C728   1.410       .  A
C728        F729   1.357       .  S
C733        C734   1.410       .  A
C733        C738   1.398       .  A
C733        F740   1.357       .  S
C734        C735   1.408       .  A
C735        C736   1.399       .  A
C735        F742   1.357       .  S
C736        C737   1.411       .  A
C736        F741   1.358       .  S
C737        C738   1.408       .  A
C738        F739   1.358       .  S
C743        C744   1.411       .  A
C743        C748   1.402       .  A
C743        F750   1.358       .  S
C744        C745   1.409       .  A
C745        C746   1.396       .  A
C745        F752   1.358       .  S
C746        C747   1.409       .  A
C746        F751   1.357       .  S
C747        C748   1.409       .  A
C748        F749   1.357       .  S
C753        C754   1.409       .  A
C753        C758   1.396       .  A
C753        F760   1.358       .  S
C754        C755   1.412       .  A
C755        C756   1.398       .  A
C755        F762   1.358       .  S
C756        C757   1.405       .  A
C756        F761   1.357       .  S
C757        C758   1.408       .  A
C758        F759   1.358       .  S
C763        C764   1.406       .  A
C763        C768   1.397       .  A
C763        F770   1.357       .  S
C764        C765   1.410       .  A
C765        C766   1.399       .  A
C765        F772   1.357       .  S
C766        C767   1.409       .  A
C766        F771   1.358       .  S
C767        C768   1.411       .  A
C768        F769   1.358       .  S
C773        C774   1.403       .  A
C773        C778   1.392       .  A
C773        F780   1.358       .  S
C774        C775   1.404       .  A
C775        C776   1.398       .  A
C775        F782   1.358       .  S
C776        C777   1.411       .  A
C776        F781   1.358       .  S
C777        C778   1.411       .  A
C778        F779   1.358       .  S
C783        C784   1.413       .  A
C783        C788   1.399       .  A
C783        F790   1.356       .  S
C784        C785   1.411       .  A
C785        C786   1.394       .  A
C785        F792   1.356       .  S
C786        C787   1.403       .  A
C786        F791   1.359       .  S
C787        C788   1.402       .  A
C788        F789   1.358       .  S
C793        C794   1.408   1_545  A
C793        C798   1.399       .  A
C793        F800   1.357       .  S
C794        C795   1.408       .  A
C795        C796   1.403       .  A
C795        F802   1.357       .  S
C796        C797   1.413       .  A
C796        F801   1.358       .  S
C797        C798   1.410   1_565  A
C798        F799   1.358       .  S
C803        C804   1.408   1_565  A
C803        C808   1.396       .  A
C803        F810   1.358       .  S
C804        C805   1.411       .  A
C805        C806   1.398       .  A
C805        F812   1.358       .  S
C806        C807   1.404       .  A
C806        F811   1.358       .  S
C807        C808   1.404   1_545  A
C808        F809   1.358       .  S
C813        C814   1.412       .  A
C813        C818   1.402       .  A
C813        F820   1.358       .  S
C814        C815   1.412   1_545  A
C815        C816   1.398       .  A
C815        F822   1.358       .  S
C816        C817   1.406   1_565  A
C816        F821   1.358       .  S
C817        C818   1.407       .  A
C818        F819   1.358       .  S
C823        C824   1.411   1_545  A
C823        C828   1.396       .  A
C823        F830   1.356       .  S
C824        C825   1.414       .  A
C825        C826   1.401       .  A
C825        F832   1.356       .  S
C826        C827   1.405       .  A
C826        F831   1.358       .  S
C827        C828   1.405   1_565  A
C828        F829   1.358       .  S
C833        C834   1.403       .  A
C833        C838   1.399       .  A
C833        F840   1.358       .  S
C834        C835   1.403       .  A
C835        C836   1.398       .  A
C835        F842   1.358       .  S
C836        C837   1.412       .  A
C836        F841   1.357       .  S
C837        C838   1.411       .  A
C838        F839   1.357       .  S
C843        C844   1.411       .  A
C843        C848   1.398       .  A
C843        F850   1.357       .  S
C844        C845   1.413       .  A
C845        C846   1.405       .  A
C845        F852   1.358       .  S
C846        C847   1.408       .  A
C846        F851   1.358       .  S
C847        C848   1.405       .  A
C848        F849   1.357       .  S
C853        C854   1.410       .  A
C853        C858   1.400       .  A
C853        F860   1.358       .  S
C854        C855   1.412       .  A
C855        C856   1.403       .  A
C855        F862   1.358       .  S
C856        C857   1.407       .  A
C856        F861   1.357       .  S
C857        C858   1.408       .  A
C858        F859   1.357       .  S
C863        C864   1.412       .  A
C863        C868   1.403       .  A
C863        F870   1.358       .  S
C864        C865   1.411       .  A
C865        C866   1.400       .  A
C865        F872   1.357       .  S
C866        C867   1.406       .  A
C866        F871   1.357       .  S
C867        C868   1.408       .  A
C868        F869   1.358       .  S
C873        C874   1.412       .  A
C873        C878   1.401       .  A
C873        F880   1.358       .  S
C874        C875   1.411       .  A
C875        C876   1.400       .  A
C875        F882   1.358       .  S
C876        C877   1.406       .  A
C876        F881   1.358       .  S
C877        C878   1.406       .  A
C878        F879   1.358       .  S
C883        C884   1.410       .  A
C883        C888   1.393       .  A
C883        F890   1.358       .  S
C884        C885   1.410       .  A
C885        C886   1.396       .  A
C885        F892   1.358       .  S
C886        C887   1.405       .  A
C886        F891   1.358       .  S
C887        C888   1.405       .  A
C888        F889   1.358       .  S
C893        C894   1.409       .  A
C893        C898   1.397       .  A
C893        F900   1.358       .  S
C894        C895   1.411       .  A
C895        C896   1.401       .  A
C895        F902   1.358       .  S
C896        C897   1.409       .  A
C896        F901   1.357       .  S
C897        C898   1.409       .  A
C898        F899   1.357       .  S
C903        C904   1.411       .  A
C903        C908   1.398       .  A
C903        F910   1.358       .  S
C904        C905   1.409       .  A
C905        C906   1.394       .  A
C905        F912   1.358       .  S
C906        C907   1.407       .  A
C906        F911   1.357       .  S
C907        C908   1.406       .  A
C908        F909   1.357       .  S
C913        C914   1.410       .  A
C913        C918   1.399       .  A
C913        F920   1.358       .  S
C914        C915   1.412       .  A
C915        C916   1.398       .  A
C915        F922   1.358       .  S
C916        C917   1.405       .  A
C916        F921   1.357       .  S
C917        C918   1.409       .  A
C918        F919   1.357       .  S
C923        C924   1.413       .  A
C923        C928   1.403       .  A
C923        F930   1.358       .  S
C924        C925   1.410       .  A
C925        C926   1.394       .  A
C925        F932   1.358       .  S
C926        C927   1.404       .  A
C926        F931   1.358       .  S
C927        C928   1.407       .  A
C928        F929   1.358       .  S
C933        C934   1.412       .  A
C933        C938   1.401       .  A
C933        F940   1.358       .  S
C934        C935   1.412       .  A
C935        C936   1.398       .  A
C935        F942   1.358       .  S
C936        C937   1.405       .  A
C936        F941   1.358       .  S
C937        C938   1.406       .  A
C938        F939   1.358       .  S
C943        C944   1.409       .  A
C943        C948   1.396       .  A
C943        F950   1.358       .  S
C944        C945   1.413       .  A
C945        C946   1.401       .  A
C945        F952   1.358       .  S
C946        C947   1.406       .  A
C946        F951   1.357       .  S
C947        C948   1.409       .  A
C948        F949   1.357       .  S
