geometry optimzed in LAMMPS
_audit_creation_date              2020-11-30 
_audit_creation_method            'lammps2cif' 
_symmetry_space_group_name_H-M    'P1' 
_symmetry_Int_Tables_number       1 
_symmetry_cell_setting            triclinic 
loop_ 
_symmetry_equiv_pos_as_xyz 
  x,y,z 
_cell_length_a                    47.45243002 
_cell_length_b                    25.42680544447626 
_cell_length_c                    35.76673970820288 
_cell_angle_alpha                 89.99773386693613 
_cell_angle_beta                  89.99979565792985 
_cell_angle_gamma                 90.00107510121256 
loop_ 
_atom_site_label 
_atom_site_type_symbol 
_atom_site_fract_x 
_atom_site_fract_y 
_atom_site_fract_z 
_atom_site_charge 
O1          O  0.29467733  0.15160217  0.04367426    -0.58300
C2          C  0.22331351  0.09098341  0.01998468     0.74400
O3          O  0.27836150  0.21587318  0.45813160    -0.59400
C4          C  0.31671407  0.16771639  0.02692945     0.74300
C5          C  0.30462545  0.04796179  0.47515382     0.76700
Cd6        Cd  0.27221191  0.13432154  0.49093381     1.37500
O7          O  0.24502568  0.10058486  0.03919391    -0.58300
O8          O  0.29926055  0.06275377  0.00801822    -0.57100
C9          C  0.27449241  0.24344710  0.48759112     0.76700
O10         O  0.29227959  0.07066192  0.44774783    -0.59400
O11         O  0.22303169  0.10541484  0.48581323    -0.57900
O12         O  0.31999438  0.16040235  0.99210692    -0.57900
O13         O  0.26356913  0.22108933  0.51567469    -0.57100
C14         C  0.15433864  0.45389281  0.29628846     0.86000
C15         C  0.16997245  0.50730030  0.29471451    -0.54200
C16         C  0.19683216  0.50535893  0.30774790     0.09000
C17         C  0.20649840  0.45210416  0.32025708     0.19900
C18         C  0.17368146  0.41624176  0.27474296    -0.54900
C19         C  0.20053257  0.41528778  0.28737941     0.09100
C20         C  0.15792896  0.43708940  0.33852253    -0.54500
C21         C  0.18592283  0.43741920  0.35104261     0.09600
H22         H  0.16171068  0.54379737  0.28382464     0.14200
H23         H  0.22901399  0.45338455  0.32800948    -0.00100
H24         H  0.16694042  0.39312203  0.25083198     0.14500
H25         H  0.14022744  0.42711750  0.35633764     0.14200
O26         O  0.38410601  0.14842277  0.09643740    -0.58300
C27         C  0.33564244  0.19775123  0.04784237     0.74400
O28         O  0.34680346  0.21182582  0.16858399    -0.59400
C29         C  0.40929620  0.16019702  0.10317654     0.74300
C30         C  0.36535918  0.34408753  0.07244438     0.76700
Cd31       Cd  0.36469364  0.23695258  0.10382442     1.37500
O32         O  0.36211645  0.19292568  0.04498250    -0.58300
O33         O  0.37123984  0.30358449  0.05365249    -0.57100
C34         C  0.32353552  0.19341075  0.15628967     0.76700
O35         O  0.36310202  0.33709882  0.10765291    -0.59400
O36         O  0.32502737  0.22752492  0.07233617    -0.57900
O37         O  0.41419700  0.20777387  0.11247687    -0.57900
O38         O  0.31845248  0.20180008  0.12237394    -0.57100
C39         C  0.33949268  0.48405885  0.04742648     0.86000
C40         C  0.31745535  0.45720756  0.02162700    -0.54200
C41         C  0.32672842  0.41507028  0.00142784     0.09000
C42         C  0.35803714  0.40205887  0.00985377     0.19900
C43         C  0.34988389  0.43871304  0.07235349    -0.54900
C44         C  0.35932438  0.39540376  0.05331936     0.09100
C45         C  0.36427353  0.49605455  0.02125400    -0.54500
C46         C  0.37484692  0.45360232  0.00135803     0.09600
H47         H  0.29535704  0.46709751  0.02121879     0.14200
H48         H  0.36594346  0.36731642  0.99425983    -0.00100
H49         H  0.34835865  0.43979709  0.10264933     0.14500
H50         H  0.37299099  0.53522587  0.02096242     0.14200
C51         C  0.26105095  0.36593714  0.44625616     0.86000
C52         C  0.28234454  0.40591373  0.46223180    -0.54200
C53         C  0.30648417  0.38380502  0.47714230     0.09000
C54         C  0.30765314  0.32308399  0.47128983     0.19900
C55         C  0.27846725  0.33568165  0.41623158    -0.54900
C56         C  0.30336071  0.31422006  0.42950045     0.09100
C57         C  0.25736570  0.32761515  0.47906700    -0.54500
C58         C  0.28036988  0.30008729  0.48816741     0.09600
H59         H  0.27793246  0.44774674  0.46333733     0.14200
H60         H  0.32692272  0.30445898  0.48290208    -0.00100
H61         H  0.27162999  0.33149513  0.38743608     0.14500
H62         H  0.23694168  0.31587068  0.49003971     0.14200
C63         C  0.23046599  0.38598539  0.43485294     0.86000
C64         C  0.21918540  0.42447019  0.46400600    -0.54200
C65         C  0.19284581  0.44420366  0.45812371     0.09000
C66         C  0.17805468  0.41641289  0.42409979     0.19900
C67         C  0.20886468  0.34095024  0.43368656    -0.54900
C68         C  0.18174794  0.35615108  0.42913075     0.09100
C69         C  0.22529812  0.41297734  0.39689363    -0.54500
C70         C  0.19718447  0.42630466  0.38994330     0.09600
H71         H  0.23185725  0.43404752  0.48806684     0.14200
H72         H  0.15588930  0.42893802  0.41984740    -0.00100
H73         H  0.21475972  0.29967533  0.43490152     0.14500
H74         H  0.24207084  0.41438647  0.37651705     0.14200
O75         O  0.27618804  0.87613156  0.48906415    -0.58300
C76         C  0.20468534  0.80906231  0.50091269     0.74400
O77         O  0.24250967  0.76089865  0.07016789    -0.59400
C78         C  0.29791729  0.88570721  0.00824066     0.74300
C79         C  0.21655381  0.92872600  0.05308644     0.76700
Cd80       Cd  0.24901572  0.84237649  0.03731655     1.37500
O81         O  0.22685317  0.82489177  0.48433936    -0.58300
O82         O  0.22191264  0.91389395  0.02023218    -0.57100
C83         C  0.24660894  0.73323860  0.04080969     0.76700
O84         O  0.22892217  0.90607412  0.08049485    -0.59400
O85         O  0.20122905  0.81662089  0.03567365    -0.57900
O86         O  0.29821987  0.87127021  0.04241221    -0.57900
O87         O  0.25778467  0.75550883  0.01286818    -0.57100
C88         C  0.36685881  0.52286441  0.23198840     0.86000
C89         C  0.34748887  0.56047123  0.25352786    -0.54200
C90         C  0.32064617  0.56140233  0.24085853     0.09000
C91         C  0.31471409  0.52460057  0.20796692     0.19900
C92         C  0.35124281  0.46942977  0.23352148    -0.54900
C93         C  0.32438935  0.47134569  0.22045812     0.09100
C94         C  0.36328893  0.53970210  0.18975916    -0.54500
C95         C  0.33530286  0.53934846  0.17721454     0.09600
H96         H  0.35420919  0.58359440  0.27744637     0.14200
H97         H  0.29220293  0.52329348  0.20019623    -0.00100
H98         H  0.35951157  0.43293323  0.24440643     0.14500
H99         H  0.38099542  0.54972368  0.17196556     0.14200
O100        O  0.13713349  0.82813583  0.43186712    -0.58300
C101        C  0.18575440  0.77913933  0.47992995     0.74400
O102        O  0.15796712  0.63938958  0.42059502    -0.59400
C103        C  0.11194003  0.81644430  0.42507542     0.74300
C104        C  0.19765707  0.78299886  0.37165636     0.76700
Cd105      Cd  0.15653231  0.73958387  0.42423865     1.37500
O106        O  0.15927842  0.78369941  0.48299779    -0.58300
O107        O  0.20290412  0.77391384  0.40543888    -0.57100
C108        C  0.15587382  0.63252683  0.45583456     0.76700
O109        O  0.17422791  0.76518188  0.35945508    -0.59400
O110        O  0.19634352  0.74954448  0.45531132    -0.57900
O111        O  0.10702370  0.76891009  0.41567682    -0.57900
O112        O  0.15017384  0.67313392  0.47460836    -0.57100
C113        C  0.18170798  0.49256001  0.48089279     0.86000
C114        C  0.17132682  0.53790609  0.45596520    -0.54200
C115        C  0.16188999  0.58122166  0.47498921     0.09000
C116        C  0.16316244  0.57456822  0.01845665     0.19900
C117        C  0.20373894  0.51939450  0.50670997    -0.54900
C118        C  0.19446447  0.56153671  0.02690661     0.09100
C119        C  0.15691753  0.48057034  0.50705340    -0.54500
C120        C  0.14634215  0.52303321  0.02694221     0.09600
H121        H  0.17286107  0.53682035  0.42566992     0.14200
H122        H  0.15525375  0.60931517  0.03404285    -0.00100
H123        H  0.22583307  0.50948204  0.50713258     0.14500
H124        H  0.14819816  0.44140097  0.50734302     0.14200
C125        C  0.26015207  0.61070894  0.08203392     0.86000
C126        C  0.26378037  0.64907724  0.04924033    -0.54200
C127        C  0.24075144  0.67658996  0.04022048     0.09000
C128        C  0.21350191  0.65351009  0.05712041     0.19900
C129        C  0.24275020  0.64087212  0.11211468    -0.54900
C130        C  0.21783588  0.66230559  0.09890900     0.09100
C131        C  0.23886467  0.57071214  0.06606948    -0.54500
C132        C  0.21470163  0.59279797  0.05120743     0.09600
H133        H  0.28418449  0.66085524  0.03822205     0.14200
H134        H  0.19421054  0.67211698  0.04555805    -0.00100
H135        H  0.24961360  0.64503193  0.14090144     0.14500
H136        H  0.24329653  0.52888818  0.06493518     0.14200
C137        C  0.29075276  0.59071548  0.09339577     0.86000
C138        C  0.29593859  0.56381947  0.13137803    -0.54200
C139        C  0.32405097  0.55050115  0.13832183     0.09000
C140        C  0.34317068  0.56032645  0.10414568     0.19900
C141        C  0.31235181  0.63576052  0.09448908    -0.54900
C142        C  0.33947250  0.62058437  0.09904589     0.09100
C143        C  0.30201950  0.55216861  0.06428061    -0.54500
C144        C  0.32836102  0.53244361  0.07017015     0.09600
H145        H  0.27917145  0.56244549  0.15176446     0.14200
H146        H  0.36533814  0.54781559  0.10840303    -0.00100
H147        H  0.30645257  0.67703238  0.09325446     0.14500
H148        H  0.28933921  0.54254940  0.04023678     0.14200
O149        O  0.29434489  0.32488595  0.29387087    -0.58300
C150        C  0.22327963  0.38570622  0.26997294     0.74400
O151        O  0.29227458  0.40608554  0.19772327    -0.59400
C152        C  0.31651154  0.30905606  0.27729649     0.74300
C153        C  0.27458794  0.23324048  0.23740053     0.76700
Cd154      Cd  0.27218105  0.34237792  0.24089652     1.37500
O155        O  0.24500834  0.37612679  0.28914991    -0.58300
O156        O  0.26341030  0.25550602  0.26534115    -0.57100
C157        C  0.30464337  0.42873105  0.22513311     0.76700
O158        O  0.27868847  0.26090486  0.20804303    -0.59400
O159        O  0.22297725  0.37127397  0.23580112    -0.57900
O160        O  0.31996732  0.31661776  0.24253519    -0.57900
O161        O  0.29928516  0.41389080  0.25798661    -0.57100
C162        C  0.15433992  0.02285938  0.04622839     0.86000
C163        C  0.17371073  0.06046195  0.02468343    -0.54200
C164        C  0.20055374  0.06139327  0.03735150     0.09000
C165        C  0.20648503  0.02459594  0.07024801     0.19900
C166        C  0.16995392  0.96942325  0.04470123    -0.54900
C167        C  0.19680802  0.97133945  0.05776334     0.09100
C168        C  0.15791071  0.03970216  0.08845478    -0.54500
C169        C  0.18589656  0.03934880  0.10099891     0.09600
H170        H  0.16699051  0.08358334  0.50076225     0.14200
H171        H  0.22899622  0.02328980  0.07801887    -0.00100
H172        H  0.16168411  0.93292770  0.03381975     0.14500
H173        H  0.14020436  0.04972660  0.10624755     0.14200
O174        O  0.38406515  0.32813272  0.34633138    -0.58300
C175        C  0.33544199  0.27913169  0.29827950     0.74400
O176        O  0.36322783  0.13938667  0.35762218    -0.59400
C177        C  0.40925583  0.31644483  0.35314304     0.74300
C178        C  0.32353742  0.28301175  0.40655304     0.76700
Cd179      Cd  0.36466194  0.23958475  0.35397525     1.37500
O180        O  0.36191814  0.28369271  0.29521133    -0.58300
O181        O  0.31829111  0.27392997  0.37277034    -0.57100
C182        C  0.36532130  0.13252560  0.32238277     0.76700
O183        O  0.34696465  0.26518859  0.41875592    -0.59400
O184        O  0.32485212  0.24953797  0.32290061    -0.57900
O185        O  0.41416869  0.26891360  0.36255406    -0.57900
O186        O  0.37102025  0.17313490  0.30360812    -0.57100
C187        C  0.33948812  0.99255747  0.29732445     0.86000
C188        C  0.34986908  0.03790167  0.32225245    -0.54200
C189        C  0.35930635  0.08122023  0.30322854     0.09000
C190        C  0.35803479  0.07456985  0.25976083     0.19900
C191        C  0.31745749  0.01939374  0.27150679    -0.54900
C192        C  0.32673250  0.06153874  0.25131015     0.09100
C193        C  0.36427822  0.98057073  0.27116483    -0.54500
C194        C  0.37485452  0.02303510  0.25127635     0.09600
H195        H  0.34833449  0.03681211  0.35254730     0.14200
H196        H  0.36594427  0.10931825  0.24417413    -0.00100
H197        H  0.29536371  0.00948050  0.27108375     0.14500
H198        H  0.37299612  0.94140234  0.27087552     0.14200
C199        C  0.26104603  0.11071188  0.19617824     0.86000
C200        C  0.25741713  0.14907882  0.22896996    -0.54200
C201        C  0.28044586  0.17659216  0.23799005     0.09000
C202        C  0.30769596  0.15351388  0.22109254     0.19900
C203        C  0.27844898  0.14087540  0.16609728    -0.54900
C204        C  0.30336312  0.16230914  0.17930318     0.09100
C205        C  0.28233257  0.07071507  0.21214560    -0.54500
C206        C  0.30649558  0.09280115  0.22700810     0.09600
H207        H  0.23701255  0.16085568  0.23998672     0.14200
H208        H  0.32698720  0.17212112  0.23265484    -0.00100
H209        H  0.27158665  0.14503437  0.13731026     0.14500
H210        H  0.27790025  0.02889092  0.21328101     0.14200
C211        C  0.23044541  0.09072005  0.18481491     0.86000
C212        C  0.22526003  0.06382424  0.14683391    -0.54200
C213        C  0.19714755  0.05050596  0.13989042     0.09000
C214        C  0.17802716  0.06033165  0.17406535     0.19900
C215        C  0.20884738  0.13576569  0.18371834    -0.54900
C216        C  0.18172620  0.12058960  0.17916322     0.09100
C217        C  0.21917743  0.05217325  0.21393183    -0.54500
C218        C  0.19283570  0.03244852  0.20804227     0.09600
H219        H  0.24202690  0.06244872  0.12644867     0.14200
H220        H  0.15585969  0.04782055  0.16980843    -0.00100
H221        H  0.21474723  0.17703681  0.18495265     0.14500
H222        H  0.23185639  0.04255422  0.23797549     0.14200
O223        O  0.27617510  0.60059337  0.23901030    -0.58300
C224        C  0.20448329  0.66771526  0.25127345     0.74400
O225        O  0.22892146  0.57066129  0.33045289    -0.59400
C226        C  0.29788677  0.59099416  0.25822130     0.74300
C227        C  0.24670271  0.74344717  0.29061329     0.76700
Cd228      Cd  0.24898702  0.63432492  0.28726736     1.37500
O229        O  0.22652160  0.65161158  0.23452866    -0.58300
O230        O  0.25762374  0.72109635  0.26252700    -0.57100
C231        C  0.21657591  0.54796186  0.30304726     0.76700
O232        O  0.24283690  0.71586793  0.32007269    -0.59400
O233        O  0.20120191  0.66039043  0.28609510    -0.57900
O234        O  0.29816781  0.60542714  0.29239152    -0.57900
O235        O  0.22194122  0.56275499  0.27018227    -0.57100
C236        C  0.36686033  0.95389188  0.48192331     0.86000
C237        C  0.35122819  0.00730004  0.48348962    -0.54200
C238        C  0.32436878  0.00535886  0.47045497     0.09000
C239        C  0.31470094  0.95210238  0.45795199     0.19900
C240        C  0.34751560  0.91624379  0.00347169    -0.54900
C241        C  0.32066497  0.91528931  0.49083383     0.09100
C242        C  0.36327033  0.93708251  0.43969073    -0.54500
C243        C  0.33527643  0.93741078  0.42716963     0.09600
H244        H  0.35949109  0.04379849  0.99437691     0.14200
H245        H  0.29218569  0.95338272  0.45019787    -0.00100
H246        H  0.35425532  0.89312539  0.02738527     0.14500
H247        H  0.38097188  0.92710633  0.42187747     0.14200
O248        O  0.15908070  0.69292802  0.23322334    -0.58300
C249        C  0.11190287  0.66020151  0.17503365     0.74400
O250        O  0.15809888  0.83710900  0.17055452    -0.59400
C251        C  0.18555482  0.69775201  0.23036165     0.74300
C252        C  0.19766493  0.69341211  0.12191949     0.76700
Cd253      Cd  0.15650589  0.73695952  0.17438005     1.37500
O254        O  0.13709301  0.64842931  0.18177380    -0.58300
O255        O  0.20275062  0.70181508  0.15583247    -0.57100
C256        C  0.15583888  0.84409207  0.20576309     0.76700
O257        O  0.17439544  0.71181935  0.10962456    -0.59400
O258        O  0.10700225  0.70777728  0.16572824    -0.57900
O259        O  0.19617025  0.72752743  0.20586718    -0.57900
O260        O  0.14995717  0.80358514  0.22455284    -0.57100
C261        C  0.18170396  0.98406104  0.23078577     0.86000
C262        C  0.20374149  0.95720666  0.25658418    -0.54200
C263        C  0.19446808  0.91506641  0.27678301     0.09000
C264        C  0.16315901  0.90205510  0.26835705     0.19900
C265        C  0.17131196  0.93871936  0.20585792    -0.54900
C266        C  0.16187154  0.89540644  0.22489069     0.09100
C267        C  0.15692389  0.99605264  0.25695928    -0.54500
C268        C  0.14635026  0.95359769  0.27685532     0.09600
H269        H  0.22583927  0.96709744  0.25699272     0.14200
H270        H  0.15525256  0.86731016  0.28394994    -0.00100
H271        H  0.17283744  0.93980834  0.17556220     0.14500
H272        H  0.14820822  0.03522413  0.25725319     0.14200
C273        C  0.26014548  0.86592728  0.33195556     0.86000
C274        C  0.23885210  0.90590629  0.31598031    -0.54200
C275        C  0.21471216  0.88379928  0.30106874     0.09000
C276        C  0.21354273  0.82307773  0.30691940     0.19900
C277        C  0.24272857  0.83566608  0.36197831    -0.54900
C278        C  0.21783491  0.81420682  0.34870850     0.09100
C279        C  0.26383042  0.82761187  0.29914338    -0.54500
C280        C  0.24082579  0.80008629  0.29004065     0.09600
H281        H  0.24326483  0.94773995  0.31487492     0.14200
H282        H  0.19427289  0.80445372  0.29530636    -0.00100
H283        H  0.24956517  0.83147610  0.39077423     0.14500
H284        H  0.28425480  0.81586935  0.28817074     0.14200
C285        C  0.29073119  0.88597219  0.34336098     0.86000
C286        C  0.30201193  0.92446171  0.31420896    -0.54200
C287        C  0.32835128  0.94419607  0.32009195     0.09000
C288        C  0.34314306  0.91639984  0.35411427     0.19900
C289        C  0.31233220  0.84093718  0.34452587    -0.54900
C290        C  0.33944929  0.85613783  0.34908307     0.09100
C291        C  0.29590007  0.91295829  0.38132138    -0.54500
C292        C  0.32401402  0.92628718  0.38827094     0.09600
H293        H  0.28934026  0.93404256  0.29014923     0.14200
H294        H  0.36530874  0.92892548  0.35836649    -0.00100
H295        H  0.30643645  0.79966190  0.34331034     0.14500
H296        H  0.27912755  0.91436493  0.40169883     0.14200
O297        O  0.04440599  0.15175380  0.23438257    -0.58300
C298        C  0.47328806  0.09101246  0.25824832     0.74400
O299        O  0.04228771  0.07062017  0.33050512    -0.59400
C300        C  0.06655168  0.16764482  0.25097707     0.74300
C301        C  0.02457618  0.24346360  0.29078566     0.76700
Cd302      Cd  0.02219331  0.13432414  0.28732792     1.37500
O303        O  0.49501562  0.10059990  0.23907035    -0.58300
O304        O  0.01344080  0.22117448  0.26282464    -0.57100
C305        C  0.05465224  0.04796696  0.30309533     0.76700
O306        O  0.02864364  0.21581929  0.32016142    -0.59400
O307        O  0.47298815  0.10543043  0.29242308    -0.57900
O308        O  0.06997871  0.16015046  0.28575154    -0.57900
O309        O  0.04928924  0.06279884  0.27024126    -0.57100
C310        C  0.40432896  0.45384481  0.48198145     0.86000
C311        C  0.42369843  0.41623895  0.00352530    -0.54200
C312        C  0.45054107  0.41530288  0.49085549     0.09000
C313        C  0.45647403  0.45210068  0.45795944     0.19900
C314        C  0.41994621  0.50727789  0.48350859    -0.54900
C315        C  0.44680013  0.50535864  0.47044579     0.09100
C316        C  0.40789874  0.43700120  0.43975409    -0.54500
C317        C  0.43588491  0.43734939  0.42720901     0.09600
H318        H  0.41697780  0.39311889  0.02744692     0.14200
H319        H  0.47898530  0.45340370  0.45018696    -0.00100
H320        H  0.41167837  0.54377331  0.99439244     0.14500
H321        H  0.39019197  0.42697867  0.42196206     0.14200
O322        O  0.13408161  0.14856712  0.18187058    -0.58300
C323        C  0.08548021  0.19757915  0.22999395     0.74400
O324        O  0.11323861  0.33731584  0.17059962    -0.59400
C325        C  0.15927281  0.16026249  0.17506791     0.74300
C326        C  0.07355032  0.19368470  0.12169529     0.76700
Cd327      Cd  0.11467839  0.23711652  0.17426634     1.37500
O328        O  0.11195709  0.19301154  0.23304372    -0.58300
O329        O  0.06831673  0.20270986  0.15548936    -0.57100
C330        C  0.11532634  0.34418656  0.20583869     0.76700
O331        O  0.09696511  0.21155700  0.10948578    -0.59400
O332        O  0.07488438  0.22717459  0.20537884    -0.57900
O333        O  0.16418687  0.20780239  0.16567912    -0.57900
O334        O  0.12102667  0.30358434  0.22461991    -0.57100
C335        C  0.08948110  0.48415302  0.23088689     0.86000
C336        C  0.09986612  0.43880897  0.20596034    -0.54200
C337        C  0.10930376  0.39549302  0.22498696     0.09000
C338        C  0.10802693  0.40214415  0.26845381     0.19900
C339        C  0.06744906  0.45731338  0.25670037    -0.54900
C340        C  0.07672299  0.41517006  0.27689750     0.09100
C341        C  0.11426937  0.49614348  0.25705048    -0.54500
C342        C  0.12484545  0.45368064  0.27694057     0.09600
H343        H  0.09833463  0.43989684  0.17566523     0.14200
H344        H  0.11593511  0.36739736  0.28404202    -0.00100
H345        H  0.04535465  0.46722141  0.25711891     0.14500
H346        H  0.12298781  0.53531410  0.25734020     0.14200
C347        C  0.01103276  0.36598093  0.33201908     0.86000
C348        C  0.00740190  0.32762164  0.29922242    -0.54200
C349        C  0.03043061  0.30011345  0.29019459     0.09000
C350        C  0.05768173  0.32318784  0.30709430     0.19900
C351        C  0.02843690  0.33580755  0.36209373    -0.54900
C352        C  0.05335115  0.31438025  0.34888256     0.09100
C353        C  0.03232012  0.40598219  0.31605573    -0.54500
C354        C  0.05648264  0.38390080  0.30118990     0.09600
H355        H  0.48699718  0.31584337  0.28820807     0.14200
H356        H  0.07697231  0.30458454  0.29552800    -0.00100
H357        H  0.02157625  0.33164067  0.39088121     0.14500
H358        H  0.02788974  0.44780779  0.31492746     0.14200
C359        C  0.48043270  0.38597492  0.34338729     0.86000
C360        C  0.47524797  0.41286069  0.38137320    -0.54200
C361        C  0.44713635  0.42618569  0.38831747     0.09000
C362        C  0.42801625  0.41637264  0.35414054     0.19900
C363        C  0.45883048  0.34093451  0.34447620    -0.54900
C364        C  0.43171049  0.35611513  0.34903578     0.09100
C365        C  0.46916827  0.42453353  0.31427640    -0.54500
C366        C  0.44282806  0.44426148  0.32016771     0.09600
H367        H  0.49201444  0.41422740  0.40176055     0.14200
H368        H  0.40584965  0.42888690  0.35839878    -0.00100
H369        H  0.46472713  0.29966164  0.34323857     0.14500
H370        H  0.48184828  0.43415709  0.29023473     0.14200
O371        O  0.47656323  0.82508724  0.29371653    -0.58300
C372        C  0.04789650  0.88570761  0.27000129     0.74400
O373        O  0.49279740  0.76085919  0.20812746    -0.59400
C374        C  0.45451090  0.80900892  0.27699194     0.74300
C375        C  0.46658485  0.92875786  0.22517497     0.76700
Cd376      Cd  0.49899359  0.84238805  0.24095142     1.37500
O377        O  0.02618733  0.87609476  0.28921411    -0.58300
O378        O  0.47194378  0.91395374  0.25803877    -0.57100
C379        C  0.99668645  0.73326310  0.23757273     0.76700
O380        O  0.47893515  0.90606698  0.19777008    -0.59400
O381        O  0.04817409  0.87129198  0.23582725    -0.57900
O382        O  0.45120849  0.81635724  0.24217678    -0.57900
O383        O  0.00763689  0.75559652  0.26564579    -0.57100
C384        C  0.11684965  0.52282281  0.04628995     0.86000
C385        C  0.10121444  0.46941733  0.04471589    -0.54200
C386        C  0.07435490  0.47136021  0.05774888     0.09000
C387        C  0.06469026  0.52461391  0.07025827     0.19900
C388        C  0.09750807  0.56047921  0.02474475    -0.54900
C389        C  0.07065712  0.56143439  0.03738204     0.09100
C390        C  0.11326009  0.53962194  0.08852368    -0.54500
C391        C  0.08526621  0.53929420  0.10104298     0.09600
H392        H  0.10947494  0.43292014  0.03382556     0.14200
H393        H  0.04217462  0.52333328  0.07800964    -0.00100
H394        H  0.10424969  0.58360051  0.50083394     0.14500
H395        H  0.13096214  0.54959179  0.10633915     0.14200
O396        O  0.38710814  0.82828152  0.34646519    -0.58300
C397        C  0.43558397  0.77898423  0.29791398     0.74400
O398        O  0.42438339  0.76492292  0.41862694    -0.59400
C399        C  0.36191488  0.81650684  0.35318561     0.74300
C400        C  0.40584714  0.63262292  0.32245445     0.76700
Cd401      Cd  0.40651656  0.73974317  0.35386501     1.37500
O402        O  0.40910958  0.78377375  0.29502870    -0.58300
O403        O  0.39998915  0.67314304  0.30366688    -0.57100
C404        C  0.44767059  0.78326822  0.40634238     0.76700
O405        O  0.40808932  0.63959074  0.35766675    -0.59400
O406        O  0.44619779  0.74923452  0.32242456    -0.57900
O407        O  0.35701104  0.76892967  0.36248483    -0.57900
O408        O  0.45277286  0.77480036  0.37244181    -0.57100
C409        C  0.43169811  0.49265036  0.29742566     0.86000
C410        C  0.45373276  0.51950004  0.27161889    -0.54200
C411        C  0.44445792  0.56164023  0.25142045     0.09000
C412        C  0.41315136  0.57465537  0.25985646     0.19900
C413        C  0.42131248  0.53799455  0.32235452    -0.54900
C414        C  0.41187205  0.58130790  0.30332339     0.09100
C415        C  0.40691433  0.48065859  0.27126057    -0.54500
C416        C  0.39634000  0.52311191  0.25136535     0.09600
H417        H  0.47582905  0.50960553  0.27120394     0.14200
H418        H  0.40524309  0.60940015  0.24426449    -0.00100
H419        H  0.42284348  0.53690763  0.35265024     0.14500
H420        H  0.39819761  0.44148775  0.27097128     0.14200
C421        C  0.01013343  0.61077114  0.19624204     0.86000
C422        C  0.48883981  0.57079415  0.21221872    -0.54200
C423        C  0.46469877  0.59290233  0.22712499     0.09000
C424        C  0.46352791  0.65362314  0.22126296     0.19900
C425        C  0.49271948  0.64102068  0.16621072    -0.54900
C426        C  0.46782481  0.66248227  0.17947301     0.09100
C427        C  0.01381416  0.64909660  0.22904902    -0.54500
C428        C  0.49080842  0.67662333  0.23814210     0.09600
H429        H  0.49325399  0.52896196  0.21333049     0.14200
H430        H  0.44425707  0.67224753  0.23287024    -0.00100
H431        H  0.49955912  0.64520375  0.13741588     0.14500
H432        H  0.03423676  0.66084178  0.24002532     0.14200
C433        C  0.04072007  0.59072790  0.18484534     0.86000
C434        C  0.05200120  0.55224348  0.21400100    -0.54200
C435        C  0.07834185  0.53251251  0.20811955     0.09000
C436        C  0.09313273  0.56030760  0.17409644     0.19900
C437        C  0.06231968  0.63576642  0.18367751    -0.54900
C438        C  0.08943694  0.62056914  0.17912467     0.09100
C439        C  0.04588988  0.56373699  0.14688873    -0.54500
C440        C  0.07400393  0.55041250  0.13994081     0.09600
H441        H  0.03932866  0.54266289  0.23806106     0.14200
H442        H  0.11529863  0.54778576  0.16984543    -0.00100
H443        H  0.05642342  0.67704179  0.18489130     0.14500
H444        H  0.02911689  0.56232474  0.12651253     0.14200
O445        O  0.02618357  0.60060241  0.03915733    -0.58300
C446        C  0.45464134  0.66763327  0.02724632     0.74400
O447        O  0.49255349  0.71582445  0.45807006    -0.59400
C448        C  0.04790989  0.59101733  0.01997700     0.74300
C449        C  0.46654807  0.54796979  0.47512625     0.76700
Cd450      Cd  0.49900349  0.63432657  0.49090164     1.37500
O451        O  0.47678692  0.65174784  0.04384431    -0.58300
O452        O  0.47191006  0.56279277  0.00798208    -0.57100
C453        C  0.99661765  0.74346510  0.48744701     0.76700
O454        O  0.47891375  0.57063046  0.44771887    -0.59400
O455        O  0.45121549  0.66013337  0.99247270    -0.57900
O456        O  0.04820834  0.60543937  0.48580235    -0.57900
O457        O  0.00775031  0.72117362  0.51540989    -0.57100
C458        C  0.11686913  0.95383966  0.29623580     0.86000
C459        C  0.09749862  0.91623313  0.27469566    -0.54200
C460        C  0.07065629  0.91529742  0.28736638     0.09000
C461        C  0.06472444  0.95209512  0.32026055     0.19900
C462        C  0.10125241  0.00727252  0.29470613    -0.54900
C463        C  0.07439902  0.00535327  0.30777106     0.09100
C464        C  0.11329996  0.93699674  0.33846491    -0.54500
C465        C  0.08531385  0.93734473  0.35101127     0.09600
H466        H  0.10421818  0.89311356  0.25077471     0.14200
H467        H  0.04221373  0.95339802  0.32803326    -0.00100
H468        H  0.10952044  0.04376875  0.28382044     0.14500
H469        H  0.13100704  0.92697504  0.35625712     0.14200
O470        O  0.40923607  0.69300212  0.04517620    -0.58300
C471        C  0.36192553  0.66025715  0.10314694     0.74400
O472        O  0.42423556  0.71155650  0.16872945    -0.59400
C473        C  0.43571301  0.69757290  0.04822348     0.74300
C474        C  0.40586971  0.84418451  0.07238133     0.76700
Cd475      Cd  0.40651902  0.73711200  0.10395062     1.37500
O476        O  0.38711790  0.64856115  0.09635516    -0.58300
O477        O  0.40016987  0.80358410  0.05359982    -0.57100
C478        C  0.44764887  0.69368243  0.15651825     0.76700
O479        O  0.40795827  0.83731007  0.10762028    -0.59400
O480        O  0.35701017  0.70779729  0.11253039    -0.57900
O481        O  0.44630955  0.72717652  0.07283189    -0.57900
O482        O  0.45288048  0.70270392  0.12272267    -0.57100
C483        C  0.43171554  0.98415306  0.04733163     0.86000
C484        C  0.42132859  0.93880826  0.07225883    -0.54200
C485        C  0.41189126  0.89549319  0.05323308     0.09000
C486        C  0.41316985  0.90214546  0.00976608     0.19900
C487        C  0.45374807  0.95731420  0.02152044    -0.54900
C488        C  0.44447426  0.91517169  0.00132434     0.09100
C489        C  0.40692801  0.99614358  0.02116529    -0.54500
C490        C  0.39635253  0.95368110  0.00127511     0.09600
H491        H  0.42285956  0.93989428  0.10255525     0.14200
H492        H  0.40526178  0.86739894  0.99417882    -0.00100
H493        H  0.47584399  0.96722314  0.02110246     0.14500
H494        H  0.39820962  0.03531341  0.02087371     0.14200
C495        C  0.01016404  0.86597981  0.44620763     0.86000
C496        C  0.01379369  0.82762192  0.47900709    -0.54200
C497        C  0.49076410  0.80011439  0.48803682     0.09000
C498        C  0.46351368  0.82318828  0.47113484     0.19900
C499        C  0.49275932  0.83580555  0.41613509    -0.54900
C500        C  0.46784440  0.81437855  0.42934729     0.09100
C501        C  0.48887745  0.90598186  0.46216814    -0.54500
C502        C  0.46471416  0.88390123  0.47703496     0.09600
H503        H  0.03419830  0.81584367  0.49002220     0.14200
H504        H  0.44422229  0.80458511  0.48270233    -0.00100
H505        H  0.49962067  0.83163678  0.38734817     0.14500
H506        H  0.49330884  0.94780616  0.46329410     0.14200
C507        C  0.04076475  0.88597370  0.43483821     0.86000
C508        C  0.04595006  0.91285818  0.39684983    -0.54200
C509        C  0.07406196  0.92618367  0.38990430     0.09000
C510        C  0.09318150  0.91637271  0.42408213     0.19900
C511        C  0.06236647  0.84093368  0.43375276    -0.54900
C512        C  0.08948667  0.85611473  0.42918988     0.09100
C513        C  0.05202957  0.92453306  0.46394605    -0.54500
C514        C  0.07836955  0.94426244  0.45805348     0.09600
H515        H  0.02918407  0.91422250  0.37646261     0.14200
H516        H  0.11534820  0.92888759  0.41982288    -0.00100
H517        H  0.05646899  0.79966156  0.43499169     0.14500
H518        H  0.03934915  0.93415673  0.48798895     0.14200
O519        O  0.49500772  0.37609423  0.48900570    -0.58300
C520        C  0.06669577  0.30902818  0.50123868     0.74400
O521        O  0.04226400  0.40605741  0.08045243    -0.59400
C522        C  0.47330022  0.38570983  0.00822024     0.74300
C523        C  0.02451321  0.23326190  0.04063751     0.76700
Cd524      Cd  0.02220495  0.34238968  0.03726721     1.37500
O525        O  0.04464846  0.32511975  0.48450850    -0.58300
O526        O  0.01357350  0.25560121  0.01255844    -0.57100
C527        C  0.05461051  0.42875961  0.05304765     0.76700
O528        O  0.02839094  0.26085168  0.07008712    -0.59400
O529        O  0.06999121  0.31635944  0.03605650    -0.57900
O530        O  0.47302419  0.37129415  0.04239507    -0.57900
O531        O  0.04924745  0.41396805  0.02018284    -0.57100
C532        C  0.40434756  0.02282391  0.23193054     0.86000
C533        C  0.41998153  0.96941745  0.23350687    -0.54200
C534        C  0.44684163  0.97136061  0.22047494     0.09000
C535        C  0.45650761  0.02461506  0.20796445     0.19900
C536        C  0.42368940  0.06047801  0.25347581    -0.54900
C537        C  0.45054076  0.06143302  0.24084032     0.09100
C538        C  0.40793827  0.03962440  0.18969666    -0.54500
C539        C  0.43593220  0.03929598  0.17717806     0.09600
H540        H  0.41171996  0.93292018  0.24439611     0.14200
H541        H  0.47902337  0.02333537  0.20021396    -0.00100
H542        H  0.41694783  0.08359723  0.27738637     0.14500
H543        H  0.39023665  0.04959359  0.17188016     0.14200
O544        O  0.11209581  0.28378462  0.48320245    -0.58300
C545        C  0.15928199  0.31652015  0.42503384     0.74400
O546        O  0.11311645  0.13960278  0.42055732    -0.59400
C547        C  0.08562099  0.27899844  0.48031962     0.74300
C548        C  0.07352566  0.28327413  0.37188942     0.76700
Cd549      Cd  0.11468150  0.23975500  0.42436580     1.37500
O550        O  0.13408918  0.32829505  0.43175454    -0.58300
O551        O  0.06842427  0.27480665  0.40579084    -0.57100
C552        C  0.11535145  0.13262959  0.45577016     0.76700
O553        O  0.09681285  0.26493209  0.35960511    -0.59400
O554        O  0.16418544  0.26894214  0.41574045    -0.57900
O555        O  0.07500445  0.24924823  0.45581264    -0.57900
O556        O  0.12120170  0.17314829  0.47456159    -0.57100
C557        C  0.08949954  0.99265084  0.48079468     0.86000
C558        C  0.06746516  0.01949781  0.50660202    -0.54200
C559        C  0.07674050  0.06163669  0.02679994     0.09000
C560        C  0.10804738  0.07465177  0.01836434     0.19900
C561        C  0.09988572  0.03799905  0.45586594    -0.54900
C562        C  0.10932663  0.08131022  0.47489805     0.09100
C563        C  0.11428332  0.98065689  0.50695912    -0.51300
C564        C  0.12485816  0.02310768  0.02685415     0.09600
H565        H  0.04536762  0.00960311  0.00701665     0.14200
H566        H  0.11595652  0.10939391  0.03395665    -0.00100
H567        H  0.09835467  0.03691639  0.42557058     0.14500
H568        H  0.12300081  0.94148619  0.50724699     0.14200
C569        C  0.01106544  0.11076987  0.08197424     0.86000
C570        C  0.03235855  0.07079277  0.06600038    -0.54200
C571        C  0.05650004  0.09290065  0.05109291     0.09000
C572        C  0.05767174  0.15362248  0.05695118     0.19900
C573        C  0.02847956  0.14102046  0.11200378    -0.54900
C574        C  0.05337469  0.16248278  0.09874087     0.09100
C575        C  0.00738524  0.14909474  0.04916477    -0.54500
C576        C  0.03039138  0.17662211  0.04006976     0.09600
H577        H  0.02794343  0.02896006  0.06489083     0.14200
H578        H  0.07694334  0.17224721  0.04534329    -0.00100
H579        H  0.02163958  0.14520348  0.14079839     0.14500
H580        H  0.48696268  0.16083912  0.03818762     0.14200
C581        C  0.48047851  0.09072565  0.09337177     0.86000
C582        C  0.46919672  0.05224208  0.06421757    -0.54200
C583        C  0.44285557  0.03251079  0.07009905     0.09000
C584        C  0.42806550  0.06030407  0.10412184     0.19900
C585        C  0.45887959  0.13576382  0.09453767    -0.54900
C586        C  0.43176202  0.12056559  0.09909058     0.09100
C587        C  0.47530845  0.06373366  0.13132948    -0.54500
C588        C  0.44719429  0.05040946  0.13827848     0.09600
H589        H  0.48186928  0.04266301  0.04015744     0.14200
H590        H  0.40589910  0.04778169  0.10837354    -0.00100
H591        H  0.46477631  0.17703905  0.09332139     0.14500
H592        H  0.49208142  0.06232173  0.15170601     0.14200
O593        O  0.29467731  0.15160223  0.54367431    -0.58300
C594        C  0.22331341  0.09098358  0.51998468     0.74400
O595        O  0.27836146  0.21587334  0.95813157    -0.59400
C596        C  0.31671402  0.16771646  0.52692947     0.74300
C597        C  0.30462543  0.04796183  0.97515381     0.76700
Cd598      Cd  0.27221195  0.13432157  0.99093381     1.37500
O599        O  0.24502562  0.10058485  0.53919385    -0.58300
O600        O  0.29926050  0.06275377  0.50801820    -0.57100
C601        C  0.27449245  0.24344717  0.98759114     0.76700
O602        O  0.29227949  0.07066185  0.94774781    -0.59400
O603        O  0.22303177  0.10541472  0.98581323    -0.57900
O604        O  0.31999436  0.16040229  0.49210697    -0.57900
O605        O  0.26356919  0.22108939  0.01567472    -0.57100
C606        C  0.15433857  0.45389299  0.79628850     0.86000
C607        C  0.16997235  0.50730046  0.79471449    -0.54200
C608        C  0.19683203  0.50535909  0.80774792     0.09000
C609        C  0.20649836  0.45210418  0.82025713     0.19900
C610        C  0.17368148  0.41624185  0.77474300    -0.54900
C611        C  0.20053258  0.41528788  0.78737948     0.09100
C612        C  0.15792891  0.43708952  0.83852252    -0.54500
C613        C  0.18592271  0.43741921  0.85104267     0.09600
H614        H  0.16171038  0.54379838  0.78382421     0.14200
H615        H  0.22901390  0.45338449  0.82800946    -0.00100
H616        H  0.16694056  0.39312247  0.75083224     0.14500
H617        H  0.14022692  0.42711730  0.85633799     0.14200
O618        O  0.38410598  0.14842281  0.59643736    -0.58300
C619        C  0.33564241  0.19775118  0.54784236     0.74400
O620        O  0.34680343  0.21182580  0.66858399    -0.59400
C621        C  0.40929620  0.16019709  0.60317651     0.74300
C622        C  0.36535903  0.34408755  0.57244433     0.76700
Cd623      Cd  0.36469360  0.23695269  0.60382439     1.37500
O624        O  0.36211639  0.19292572  0.54498247    -0.58300
O625        O  0.37123982  0.30358461  0.55365238    -0.57100
C626        C  0.32353552  0.19341071  0.65628967     0.76700
O627        O  0.36310199  0.33709892  0.60765292    -0.59400
O628        O  0.32502737  0.22752492  0.57233610    -0.57900
O629        O  0.41419704  0.20777405  0.61247666    -0.57900
O630        O  0.31845246  0.20180024  0.62237399    -0.57100
C631        C  0.33949269  0.48405894  0.54742642     0.86000
C632        C  0.31745537  0.45720762  0.52162693    -0.54200
C633        C  0.32672841  0.41507030  0.50142785     0.09000
C634        C  0.35803712  0.40205888  0.50985378     0.19900
C635        C  0.34988384  0.43871304  0.57235345    -0.54900
C636        C  0.35932433  0.39540380  0.55331935     0.09100
C637        C  0.36427352  0.49605469  0.52125400    -0.54500
C638        C  0.37484688  0.45360248  0.50135807     0.09600
H639        H  0.29535706  0.46709754  0.52121871     0.14200
H640        H  0.36594342  0.36731667  0.49426000    -0.00100
H641        H  0.34835861  0.43979709  0.60264928     0.14500
H642        H  0.37299134  0.53522635  0.52096261     0.14200
C643        C  0.26105100  0.36593715  0.94625618     0.86000
C644        C  0.28234460  0.40591375  0.96223178    -0.54200
C645        C  0.30648420  0.38380502  0.97714227     0.09000
C646        C  0.30765311  0.32308399  0.97128982     0.19900
C647        C  0.27846728  0.33568156  0.91623158    -0.54900
C648        C  0.30336078  0.31422020  0.92950047     0.09100
C649        C  0.25736577  0.32761527  0.97906704    -0.54500
C650        C  0.28036988  0.30008733  0.98816743     0.09600
H651        H  0.27793252  0.44774682  0.96333750     0.14200
H652        H  0.32692264  0.30445885  0.98290208    -0.00100
H653        H  0.27163024  0.33149529  0.88743630     0.14500
H654        H  0.23694168  0.31587079  0.99003982     0.14200
C655        C  0.23046600  0.38598513  0.93485296     0.86000
C656        C  0.21918540  0.42447004  0.96400603    -0.54200
C657        C  0.19284583  0.44420360  0.95812372     0.09000
C658        C  0.17805469  0.41641268  0.92409983     0.19900
C659        C  0.20886468  0.34095011  0.93368655    -0.54900
C660        C  0.18174803  0.35615072  0.92913075     0.09100
C661        C  0.22529810  0.41297724  0.89689365    -0.54500
C662        C  0.19718444  0.42630464  0.88994335     0.09600
H663        H  0.23185730  0.43404756  0.98806675     0.14200
H664        H  0.15588932  0.42893740  0.91984739    -0.00100
H665        H  0.21475986  0.29967377  0.93490153     0.14500
H666        H  0.24207085  0.41438674  0.87651729     0.14200
O667        O  0.27618802  0.87613164  0.98906419    -0.58300
C668        C  0.20468543  0.80906233  0.00091263     0.74400
O669        O  0.24250966  0.76089862  0.57016783    -0.59400
C670        C  0.29791732  0.88570720  0.50824064     0.74300
C671        C  0.21655379  0.92872598  0.55308645     0.76700
Cd672      Cd  0.24901574  0.84237647  0.53731654     1.37500
O673        O  0.22685326  0.82489189  0.98433933    -0.58300
O674        O  0.22191259  0.91389386  0.52023221    -0.57100
C675        C  0.24660890  0.73323848  0.54080965     0.76700
O676        O  0.22892211  0.90607406  0.58049487    -0.59400
O677        O  0.20122902  0.81662095  0.53567370    -0.57900
O678        O  0.29821991  0.87127042  0.54241224    -0.57900
O679        O  0.25778463  0.75550880  0.51286818    -0.57100
C680        C  0.36685878  0.52286469  0.73198840     0.86000
C681        C  0.34748886  0.56047140  0.75352794    -0.54200
C682        C  0.32064617  0.56140247  0.74085863     0.09000
C683        C  0.31471410  0.52460075  0.70796697     0.19900
C684        C  0.35124285  0.46942998  0.73352144    -0.54900
C685        C  0.32438932  0.47134601  0.72045813     0.09100
C686        C  0.36328897  0.53970223  0.68975913    -0.54500
C687        C  0.33530285  0.53934854  0.67721452     0.09600
H688        H  0.35420926  0.58359503  0.77744661     0.14200
H689        H  0.29220284  0.52329348  0.70019646    -0.00100
H690        H  0.35951119  0.43293472  0.74440651     0.14500
H691        H  0.38099532  0.54972359  0.67196571     0.14200
O692        O  0.13713345  0.82813592  0.93186711    -0.58300
C693        C  0.18575449  0.77913937  0.97992993     0.74400
O694        O  0.15796712  0.63938970  0.92059500    -0.59400
C695        C  0.11194004  0.81644433  0.92507542     0.74300
C696        C  0.19765700  0.78299891  0.87165638     0.76700
Cd697      Cd  0.15653230  0.73958394  0.92423865     1.37500
O698        O  0.15927853  0.78369948  0.98299780    -0.58300
O699        O  0.20290410  0.77391397  0.90543892    -0.57100
C700        C  0.15587375  0.63252692  0.95583454     0.76700
O701        O  0.17422785  0.76518182  0.85945506    -0.59400
O702        O  0.19634355  0.74954449  0.95531126    -0.57900
O703        O  0.10702376  0.76891009  0.91567683    -0.57900
O704        O  0.15017382  0.67313405  0.97460838    -0.57100
C705        C  0.18170800  0.49255999  0.98089285     0.86000
C706        C  0.17132689  0.53790604  0.95596527    -0.54200
C707        C  0.16188996  0.58122168  0.97498918     0.09000
C708        C  0.16316238  0.57456817  0.51845669     0.19900
C709        C  0.20373890  0.51939451  0.00670997    -0.54900
C710        C  0.19446447  0.56153676  0.52690660     0.09100
C711        C  0.15691752  0.48057043  0.00705347    -0.54500
C712        C  0.14634212  0.52303307  0.52694213     0.09600
H713        H  0.17286093  0.53681979  0.92566992     0.14200
H714        H  0.15525355  0.60931476  0.53404288    -0.00100
H715        H  0.22583318  0.50948155  0.00713297     0.14500
H716        H  0.14819825  0.44140105  0.00734316     0.14200
C717        C  0.26015207  0.61070868  0.58203399     0.86000
C718        C  0.26378036  0.64907697  0.54924037    -0.54200
C719        C  0.24075137  0.67658967  0.54022044     0.09000
C720        C  0.21350190  0.65350988  0.55712043     0.19900
C721        C  0.24275020  0.64087205  0.61211462    -0.54900
C722        C  0.21783587  0.66230550  0.59890901     0.09100
C723        C  0.23886468  0.57071210  0.56606956    -0.54500
C724        C  0.21470168  0.59279778  0.55120748     0.09600
H725        H  0.28418420  0.66085513  0.53822249     0.14200
H726        H  0.19421049  0.67211676  0.54555797    -0.00100
H727        H  0.24961385  0.64503229  0.64090154     0.14500
H728        H  0.24329667  0.52888689  0.56493517     0.14200
C729        C  0.29075282  0.59071541  0.59339572     0.86000
C730        C  0.29593858  0.56381937  0.63137807    -0.54200
C731        C  0.32405104  0.55050124  0.63832176     0.09000
C732        C  0.34317064  0.56032644  0.60414561     0.19900
C733        C  0.31235179  0.63576048  0.59448906    -0.54900
C734        C  0.33947249  0.62058436  0.59904588     0.09100
C735        C  0.30201954  0.55216858  0.56428053    -0.54500
C736        C  0.32836104  0.53244357  0.57017007     0.09600
H737        H  0.27917208  0.56244573  0.65176403     0.14200
H738        H  0.36533814  0.54781569  0.60840294    -0.00100
H739        H  0.30645253  0.67703238  0.59325432     0.14500
H740        H  0.28933926  0.54254940  0.54023678     0.14200
O741        O  0.29434497  0.32488595  0.79387080    -0.58300
C742        C  0.22327958  0.38570617  0.76997297     0.74400
O743        O  0.29227460  0.40608560  0.69772331    -0.59400
C744        C  0.31651158  0.30905608  0.77729639     0.74300
C745        C  0.27458786  0.23324041  0.73740052     0.76700
Cd746      Cd  0.27218101  0.34237795  0.74089648     1.37500
O747        O  0.24500828  0.37612664  0.78914995    -0.58300
O748        O  0.26341031  0.25550597  0.76534118    -0.57100
C749        C  0.30464348  0.42873106  0.72513312     0.76700
O750        O  0.27868844  0.26090489  0.70804307    -0.59400
O751        O  0.22297723  0.37127413  0.73580109    -0.57900
O752        O  0.31996730  0.31661770  0.74253505    -0.57900
O753        O  0.29928519  0.41389087  0.75798660    -0.57100
C754        C  0.15433999  0.02285941  0.54622831     0.86000
C755        C  0.17371076  0.06046203  0.52468341    -0.54200
C756        C  0.20055373  0.06139331  0.53735149     0.09000
C757        C  0.20648502  0.02459586  0.57024797     0.19900
C758        C  0.16995396  0.96942327  0.54470120    -0.54900
C759        C  0.19680802  0.97133939  0.55776335     0.09100
C760        C  0.15791077  0.03970223  0.58845481    -0.54500
C761        C  0.18589669  0.03934878  0.60099889     0.09600
H762        H  0.16699042  0.08358305  0.00076225     0.14200
H763        H  0.22899625  0.02328968  0.57801883    -0.00100
H764        H  0.16168405  0.93292756  0.53381992     0.14500
H765        H  0.14020495  0.04972641  0.60624715     0.14200
O766        O  0.38406509  0.32813267  0.84633137    -0.58300
C767        C  0.33544199  0.27913180  0.79827954     0.74400
O768        O  0.36322776  0.13938651  0.85762216    -0.59400
C769        C  0.40925580  0.31644480  0.85314304     0.74300
C770        C  0.32353745  0.28301176  0.90655306     0.76700
Cd771      Cd  0.36466192  0.23958467  0.85397525     1.37500
O772        O  0.36191812  0.28369269  0.79521142    -0.58300
O773        O  0.31829104  0.27392954  0.87277046    -0.57100
C774        C  0.36532128  0.13252549  0.82238275     0.76700
O775        O  0.34696467  0.26518858  0.91875588    -0.59400
O776        O  0.32485212  0.24953808  0.82290064    -0.57900
O777        O  0.41416871  0.26891360  0.86255411    -0.57900
O778        O  0.37102040  0.17313480  0.80360816    -0.57100
C779        C  0.33948804  0.99255727  0.79732448     0.86000
C780        C  0.34986906  0.03790156  0.82225244    -0.54200
C781        C  0.35930626  0.08122013  0.80322849     0.09000
C782        C  0.35803473  0.07456969  0.75976085     0.19900
C783        C  0.31745750  0.01939370  0.77150684    -0.54900
C784        C  0.32673240  0.06153854  0.75131013     0.09100
C785        C  0.36427813  0.98057078  0.77116489    -0.54500
C786        C  0.37485448  0.02303491  0.75127634     0.09600
H787        H  0.34833416  0.03681247  0.85254734     0.14200
H788        H  0.36594433  0.10931862  0.74417413    -0.00100
H789        H  0.29536285  0.00947971  0.77108360     0.14500
H790        H  0.37299644  0.94140107  0.77087559     0.14200
C791        C  0.26104606  0.11071188  0.69617823     0.86000
C792        C  0.25741720  0.14907876  0.72897000    -0.54200
C793        C  0.28044589  0.17659209  0.73799012     0.09000
C794        C  0.30769592  0.15351385  0.72109253     0.19900
C795        C  0.27844903  0.14087543  0.66609731    -0.54900
C796        C  0.30336311  0.16230923  0.67930319     0.09100
C797        C  0.28233248  0.07071515  0.71214555    -0.54500
C798        C  0.30649549  0.09280103  0.72700810     0.09600
H799        H  0.23701267  0.16085575  0.73998667     0.14200
H800        H  0.32698713  0.17212124  0.73265482    -0.00100
H801        H  0.27158657  0.14503470  0.63731037     0.14500
H802        H  0.27789989  0.02889048  0.71328104     0.14200
C803        C  0.23044545  0.09072019  0.68481496     0.86000
C804        C  0.22526010  0.06382430  0.64683394    -0.54200
C805        C  0.19714761  0.05050619  0.63989044     0.09000
C806        C  0.17802721  0.06033179  0.67406542     0.19900
C807        C  0.20884745  0.13576577  0.68371836    -0.54900
C808        C  0.18172630  0.12058979  0.67916330     0.09100
C809        C  0.21917734  0.05217340  0.71393183    -0.54500
C810        C  0.19283571  0.03244855  0.70804233     0.09600
H811        H  0.24202687  0.06244894  0.62644862     0.14200
H812        H  0.15585969  0.04782102  0.66980860    -0.00100
H813        H  0.21474745  0.17703791  0.68495270     0.14500
H814        H  0.23185651  0.04255368  0.73797565     0.14200
O815        O  0.27617509  0.60059341  0.73901028    -0.58300
C816        C  0.20448334  0.66771502  0.75127350     0.74400
O817        O  0.22892141  0.57066144  0.83045292    -0.59400
C818        C  0.29788675  0.59099422  0.75822131     0.74300
C819        C  0.24670278  0.74344720  0.79061331     0.76700
Cd820      Cd  0.24898699  0.63432496  0.78726734     1.37500
O821        O  0.22652167  0.65161146  0.73452872    -0.58300
O822        O  0.25762375  0.72109634  0.76252698    -0.57100
C823        C  0.21657594  0.54796184  0.80304731     0.76700
O824        O  0.24283692  0.71586790  0.82007269    -0.59400
O825        O  0.20120192  0.66039020  0.78609516    -0.57900
O826        O  0.29816777  0.60542718  0.79239152    -0.57900
O827        O  0.22194126  0.56275498  0.77018233    -0.57100
C828        C  0.36686032  0.95389184  0.98192324     0.86000
C829        C  0.35122811  0.00730002  0.98348958    -0.54200
C830        C  0.32436872  0.00535882  0.97045503     0.09000
C831        C  0.31470100  0.95210235  0.95795200     0.19900
C832        C  0.34751562  0.91624381  0.50347174    -0.54900
C833        C  0.32066499  0.91528917  0.99083379     0.09100
C834        C  0.36327033  0.93708246  0.93969071    -0.54500
C835        C  0.33527652  0.93741084  0.92716954     0.09600
H836        H  0.35949112  0.04379848  0.49437687     0.14200
H837        H  0.29218572  0.95338280  0.95019785    -0.00100
H838        H  0.35425527  0.89312558  0.52738530     0.14500
H839        H  0.38097234  0.92710627  0.92187703     0.14200
O840        O  0.15908083  0.69292796  0.73322326    -0.58300
C841        C  0.11190292  0.66020137  0.67503364     0.74400
O842        O  0.15809882  0.83710896  0.67055453    -0.59400
C843        C  0.18555494  0.69775173  0.73036153     0.74300
C844        C  0.19766495  0.69341222  0.62191943     0.76700
Cd845      Cd  0.15650596  0.73695953  0.67438004     1.37500
O846        O  0.13709308  0.64842923  0.68177383    -0.58300
O847        O  0.20275068  0.70181539  0.65583241    -0.57100
C848        C  0.15583886  0.84409205  0.70576309     0.76700
O849        O  0.17439547  0.71181937  0.60962447    -0.59400
O850        O  0.10700230  0.70777715  0.66572823    -0.57900
O851        O  0.19617037  0.72752732  0.70586718    -0.57900
O852        O  0.14995715  0.80358516  0.72455285    -0.57100
C853        C  0.18170413  0.98406083  0.73078580     0.86000
C854        C  0.20374153  0.95720647  0.75658420    -0.54200
C855        C  0.19446814  0.91506632  0.77678300     0.09000
C856        C  0.16315904  0.90205496  0.76835705     0.19900
C857        C  0.17131201  0.93871925  0.70585799    -0.54900
C858        C  0.16187162  0.89540626  0.72489075     0.09100
C859        C  0.15692399  0.99605253  0.75695934    -0.54500
C860        C  0.14635034  0.95359736  0.77685540     0.09600
H861        H  0.22584006  0.96709755  0.75699277     0.14200
H862        H  0.15525245  0.86730945  0.78395014    -0.00100
H863        H  0.17283767  0.93980811  0.67556221     0.14500
H864        H  0.14820853  0.03522245  0.75725297     0.14200
C865        C  0.26014539  0.86592731  0.83195559     0.86000
C866        C  0.23885207  0.90590644  0.81598033    -0.54200
C867        C  0.21471216  0.88379936  0.80106871     0.09000
C868        C  0.21354263  0.82307773  0.80691940     0.19900
C869        C  0.24272853  0.83566602  0.86197836    -0.54900
C870        C  0.21783489  0.81420675  0.84870849     0.09100
C871        C  0.26383041  0.82761180  0.79914341    -0.54500
C872        C  0.24082570  0.80008633  0.79004064     0.09600
H873        H  0.24326482  0.94774019  0.81487491     0.14200
H874        H  0.19427292  0.80445381  0.79530656    -0.00100
H875        H  0.24956496  0.83147628  0.89077419     0.14500
H876        H  0.28425429  0.81586961  0.78817087     0.14200
C877        C  0.29073107  0.88597212  0.84336094     0.86000
C878        C  0.30201186  0.92446164  0.81420894    -0.54200
C879        C  0.32835115  0.94419590  0.82009186     0.09000
C880        C  0.34314298  0.91639973  0.85411428     0.19900
C881        C  0.31233211  0.84093695  0.84452586    -0.54900
C882        C  0.33944916  0.85613772  0.84908303     0.09100
C883        C  0.29590004  0.91295814  0.88132144    -0.54500
C884        C  0.32401393  0.92628709  0.88827094     0.09600
H885        H  0.28934013  0.93404230  0.79014827     0.14200
H886        H  0.36530821  0.92892486  0.85836645    -0.00100
H887        H  0.30643648  0.79966186  0.84331034     0.14500
H888        H  0.27912741  0.91436547  0.90169891     0.14200
O889        O  0.04440602  0.15175395  0.73438261    -0.58300
C890        C  0.47328803  0.09101247  0.75824837     0.74400
O891        O  0.04228764  0.07062013  0.83050511    -0.59400
C892        C  0.06655178  0.16764479  0.75097706     0.74300
C893        C  0.02457619  0.24346360  0.79078569     0.76700
Cd894      Cd  0.02219338  0.13432414  0.78732794     1.37500
O895        O  0.49501563  0.10059985  0.73907043    -0.58300
O896        O  0.01344080  0.22117452  0.76282468    -0.57100
C897        C  0.05465220  0.04796693  0.80309532     0.76700
O898        O  0.02864379  0.21581923  0.82016138    -0.59400
O899        O  0.47298806  0.10543058  0.79242307    -0.57900
O900        O  0.06997883  0.16015034  0.78575151    -0.57900
O901        O  0.04928919  0.06279874  0.77024125    -0.57100
C902        C  0.40432895  0.45384494  0.98198132     0.86000
C903        C  0.42369841  0.41623879  0.50352532    -0.54200
C904        C  0.45054112  0.41530305  0.99085548     0.09000
C905        C  0.45647403  0.45210079  0.95795940     0.19900
C906        C  0.41994609  0.50727806  0.98350851    -0.54900
C907        C  0.44680007  0.50535878  0.97044576     0.09100
C908        C  0.40789873  0.43700136  0.93975405    -0.54500
C909        C  0.43588486  0.43734935  0.92720898     0.09600
H910        H  0.41697769  0.39311791  0.52744715     0.14200
H911        H  0.47898521  0.45340410  0.95018693    -0.00100
H912        H  0.41167850  0.54377346  0.49439236     0.14500
H913        H  0.39019185  0.42697781  0.92196192     0.14200
O914        O  0.13408165  0.14856729  0.68187059    -0.58300
C915        C  0.08548030  0.19757929  0.72999398     0.74400
O916        O  0.11323867  0.33731586  0.67059963    -0.59400
C917        C  0.15927286  0.16026258  0.67506790     0.74300
C918        C  0.07355035  0.19368460  0.62169532     0.76700
Cd919      Cd  0.11467845  0.23711659  0.67426634     1.37500
O920        O  0.11195722  0.19301164  0.73304374    -0.58300
O921        O  0.06831671  0.20271001  0.65548935    -0.57100
C922        C  0.11532648  0.34418657  0.70583870     0.76700
O923        O  0.09696516  0.21155690  0.60948584    -0.59400
O924        O  0.07488440  0.22717469  0.70537887    -0.57900
O925        O  0.16418696  0.20780247  0.66567912    -0.57900
O926        O  0.12102675  0.30358428  0.72461991    -0.57100
C927        C  0.08948094  0.48415297  0.73088691     0.86000
C928        C  0.09986608  0.43880898  0.70596038    -0.54200
C929        C  0.10930374  0.39549303  0.72498702     0.09000
C930        C  0.10802687  0.40214431  0.76845382     0.19900
C931        C  0.06744901  0.45731333  0.75670034    -0.54900
C932        C  0.07672285  0.41517021  0.77689748     0.09100
C933        C  0.11426930  0.49614337  0.75705045    -0.54500
C934        C  0.12484544  0.45368055  0.77694053     0.09600
H935        H  0.09833430  0.43989651  0.67566526     0.14200
H936        H  0.11593525  0.36739733  0.78404225    -0.00100
H937        H  0.04535366  0.46722204  0.75711898     0.14500
H938        H  0.12298757  0.53531372  0.75734031     0.14200
C939        C  0.01103279  0.36598092  0.83201908     0.86000
C940        C  0.00740195  0.32762159  0.79922242    -0.54200
C941        C  0.03043064  0.30011343  0.79019457     0.09000
C942        C  0.05768167  0.32318800  0.80709435     0.19900
C943        C  0.02843689  0.33580761  0.86209374    -0.54900
C944        C  0.05335111  0.31438025  0.84888265     0.09100
C945        C  0.03232009  0.40598215  0.81605572    -0.54500
C946        C  0.05648262  0.38390095  0.80118995     0.09600
H947        H  0.48699731  0.31584410  0.78820800     0.14200
H948        H  0.07697234  0.30458499  0.79552800    -0.00100
H949        H  0.02157598  0.33164054  0.89088147     0.14500
H950        H  0.02788948  0.44780783  0.81492730     0.14200
C951        C  0.48043272  0.38597505  0.84338721     0.86000
C952        C  0.47524795  0.41286078  0.88137325    -0.54200
C953        C  0.44713626  0.42618572  0.88831742     0.09000
C954        C  0.42801629  0.41637256  0.85414050     0.19900
C955        C  0.45883051  0.34093448  0.84447609    -0.54900
C956        C  0.43171048  0.35611509  0.84903570     0.09100
C957        C  0.46916829  0.42453358  0.81427640    -0.54500
C958        C  0.44282813  0.44426148  0.82016770     0.09600
H959        H  0.49201385  0.41422677  0.90176026     0.14200
H960        H  0.40584965  0.42888698  0.85839876    -0.00100
H961        H  0.46472710  0.29966191  0.84323841     0.14500
H962        H  0.48184859  0.43415790  0.79023436     0.14200
O963        O  0.47656314  0.82508721  0.79371640    -0.58300
C964        C  0.04789660  0.88570767  0.77000128     0.74400
O965        O  0.49279746  0.76085930  0.70812741    -0.59400
C966        C  0.45451076  0.80900905  0.77699188     0.74300
C967        C  0.46658484  0.92875798  0.72517498     0.76700
Cd968      Cd  0.49899358  0.84238812  0.74095141     1.37500
O969        O  0.02618743  0.87609487  0.78921407    -0.58300
O970        O  0.47194384  0.91395398  0.75803879    -0.57100
C971        C  0.99668646  0.73326313  0.73757275     0.76700
O972        O  0.47893511  0.90606704  0.69777008    -0.59400
O973        O  0.04817417  0.87129211  0.73582724    -0.57900
O974        O  0.45120845  0.81635718  0.74217675    -0.57900
O975        O  0.00763701  0.75559650  0.76564570    -0.57100
C976        C  0.11684961  0.52282264  0.54628991     0.86000
C977        C  0.10121435  0.46941735  0.54471587    -0.54200
C978        C  0.07435482  0.47136022  0.55774884     0.09000
C979        C  0.06469021  0.52461388  0.57025827     0.19900
C980        C  0.09750810  0.56047913  0.52474475    -0.54900
C981        C  0.07065711  0.56143432  0.53738206     0.09100
C982        C  0.11326002  0.53962182  0.58852365    -0.54500
C983        C  0.08526611  0.53929432  0.60104296     0.09600
H984        H  0.10947504  0.43291941  0.53382548     0.14200
H985        H  0.04217421  0.52333320  0.57800964    -0.00100
H986        H  0.10424961  0.58360048  0.00083389     0.14500
H987        H  0.13096200  0.54959173  0.60633895     0.14200
O988        O  0.38710814  0.82828149  0.84646517    -0.58300
C989        C  0.43558391  0.77898404  0.79791383     0.74400
O990        O  0.42438350  0.76492270  0.91862701    -0.59400
C991        C  0.36191486  0.81650681  0.85318562     0.74300
C992        C  0.40584705  0.63262268  0.82245446     0.76700
Cd993      Cd  0.40651662  0.73974307  0.85386503     1.37500
O994        O  0.40910952  0.78377372  0.79502879    -0.58300
O995        O  0.39998912  0.67314286  0.80366693    -0.57100
C996        C  0.44767066  0.78326813  0.90634241     0.76700
O997        O  0.40808929  0.63959050  0.85766675    -0.59400
O998        O  0.44619780  0.74923440  0.82242438    -0.57900
O999        O  0.35701106  0.76892962  0.86248485    -0.57900
O1000       O  0.45277290  0.77480055  0.87244177    -0.57100
C1001       C  0.43169817  0.49265016  0.79742560     0.86000
C1002       C  0.45373279  0.51950014  0.77161893    -0.54200
C1003       C  0.44445800  0.56164018  0.75142054     0.09000
C1004       C  0.41315140  0.57465518  0.75985644     0.19900
C1005       C  0.42131246  0.53799436  0.82235443    -0.54900
C1006       C  0.41187204  0.58130770  0.80332331     0.09100
C1007       C  0.40691436  0.48065857  0.77126045    -0.54500
C1008       C  0.39634000  0.52311171  0.75136527     0.09600
H1009       H  0.47582988  0.50960552  0.77120401     0.14200
H1010       H  0.40524311  0.60940007  0.74426451    -0.00100
H1011       H  0.42284322  0.53690728  0.85265015     0.14500
H1012       H  0.39819761  0.44148631  0.77097058     0.14200
C1013       C  0.01013350  0.61077133  0.69624205     0.86000
C1014       C  0.48883976  0.57079424  0.71221870    -0.54200
C1015       C  0.46469862  0.59290242  0.72712494     0.09000
C1016       C  0.46352776  0.65362324  0.72126298     0.19900
C1017       C  0.49271943  0.64102068  0.66621073    -0.54900
C1018       C  0.46782476  0.66248247  0.67947305     0.09100
C1019       C  0.01381430  0.64909669  0.72904907    -0.54500
C1020       C  0.49080820  0.67662338  0.73814215     0.09600
H1021       H  0.49325398  0.52896220  0.71333044     0.14200
H1022       H  0.44425656  0.67224809  0.73287017    -0.00100
H1023       H  0.49955917  0.64520387  0.63741588     0.14500
H1024       H  0.03423694  0.66084216  0.74002530     0.14200
C1025       C  0.04072006  0.59072772  0.68484539     0.86000
C1026       C  0.05200121  0.55224355  0.71400100    -0.54200
C1027       C  0.07834174  0.53251240  0.70811960     0.09000
C1028       C  0.09313267  0.56030740  0.67409643     0.19900
C1029       C  0.06231965  0.63576635  0.68367752    -0.54900
C1030       C  0.08943695  0.62056889  0.67912463     0.09100
C1031       C  0.04588992  0.56373684  0.64688878    -0.54500
C1032       C  0.07400394  0.55041255  0.63994079     0.09600
H1033       H  0.03932831  0.54266258  0.73806176     0.14200
H1034       H  0.11529853  0.54778542  0.66984538    -0.00100
H1035       H  0.05642351  0.67704085  0.68489121     0.14500
H1036       H  0.02911697  0.56232465  0.62651241     0.14200
O1037       O  0.02618359  0.60060261  0.53915737    -0.58300
C1038       C  0.45464145  0.66763335  0.52724637     0.74400
O1039       O  0.49255345  0.71582461  0.95807012    -0.59400
C1040       C  0.04790990  0.59101735  0.51997699     0.74300
C1041       C  0.46654811  0.54796983  0.97512624     0.76700
Cd1042     Cd  0.49900352  0.63432660  0.99090170     1.37500
O1043       O  0.47678701  0.65174778  0.54384430    -0.58300
O1044       O  0.47190996  0.56279282  0.50798209    -0.57100
C1045       C  0.99661775  0.74346529  0.98744701     0.76700
O1046       O  0.47891372  0.57063066  0.94771885    -0.59400
O1047       O  0.45121555  0.66013350  0.49247272    -0.57900
O1048       O  0.04820833  0.60543950  0.98580241    -0.57900
O1049       O  0.00775030  0.72117374  0.01540993    -0.57100
C1050       C  0.11686907  0.95383958  0.79623578     0.86000
C1051       C  0.09749860  0.91623317  0.77469562    -0.54200
C1052       C  0.07065628  0.91529748  0.78736639     0.09000
C1053       C  0.06472444  0.95209509  0.82026061     0.19900
C1054       C  0.10125240  0.00727254  0.79470619    -0.54900
C1055       C  0.07439892  0.00535319  0.80777114     0.09100
C1056       C  0.11329988  0.93699676  0.83846495    -0.54500
C1057       C  0.08531371  0.93734471  0.85101126     0.09600
H1058       H  0.10421808  0.89311351  0.75077467     0.14200
H1059       H  0.04221350  0.95339799  0.82803365    -0.00100
H1060       H  0.10952012  0.04376793  0.78382062     0.14500
H1061       H  0.13100638  0.92697495  0.85625669     0.14200
O1062       O  0.40923614  0.69300221  0.54517601    -0.58300
C1063       C  0.36192555  0.66025709  0.60314695     0.74400
O1064       O  0.42423553  0.71155667  0.66872929    -0.59400
C1065       C  0.43571306  0.69757285  0.54822349     0.74300
C1066       C  0.40586966  0.84418460  0.57238138     0.76700
Cd1067     Cd  0.40651900  0.73711200  0.60395048     1.37500
O1068       O  0.38711793  0.64856110  0.59635511    -0.58300
O1069       O  0.40016981  0.80358428  0.55359979    -0.57100
C1070       C  0.44764877  0.69368236  0.65651813     0.76700
O1071       O  0.40795839  0.83731001  0.60762030    -0.59400
O1072       O  0.35701019  0.70779725  0.61253036    -0.57900
O1073       O  0.44630959  0.72717648  0.57283197    -0.57900
O1074       O  0.45288037  0.70270395  0.62272257    -0.57100
C1075       C  0.43171546  0.98415303  0.54733164     0.86000
C1076       C  0.42132859  0.93880828  0.57225886    -0.54200
C1077       C  0.41189130  0.89549318  0.55323314     0.09000
C1078       C  0.41316982  0.90214534  0.50976608     0.19900
C1079       C  0.45374811  0.95731421  0.52152041    -0.54900
C1080       C  0.44447413  0.91517154  0.50132432     0.09100
C1081       C  0.40692799  0.99614379  0.52116526    -0.54500
C1082       C  0.39635258  0.95368111  0.50127507     0.09600
H1083       H  0.42285952  0.93989440  0.60255518     0.14200
H1084       H  0.40526197  0.86739919  0.49417888    -0.00100
H1085       H  0.47584296  0.96722232  0.52110254     0.14500
H1086       H  0.39820995  0.03531285  0.52087360     0.14200
C1087       C  0.01016401  0.86598003  0.94620763     0.86000
C1088       C  0.01379368  0.82762203  0.97900711    -0.54200
C1089       C  0.49076431  0.80011450  0.98803672     0.09000
C1090       C  0.46351376  0.82318844  0.97113485     0.19900
C1091       C  0.49275932  0.83580564  0.91613506    -0.54900
C1092       C  0.46784442  0.81437873  0.92934731     0.09100
C1093       C  0.48887753  0.90598206  0.96216815    -0.54500
C1094       C  0.46471431  0.88390155  0.97703490     0.09600
H1095       H  0.03419811  0.81584391  0.99002217     0.14200
H1096       H  0.44422274  0.80458576  0.98270224    -0.00100
H1097       H  0.49962041  0.83163709  0.88734839     0.14500
H1098       H  0.49330891  0.94780742  0.96329402     0.14200
C1099       C  0.04076475  0.88597354  0.93483816     0.86000
C1100       C  0.04595008  0.91285816  0.89684989    -0.54200
C1101       C  0.07406199  0.92618361  0.88990433     0.09000
C1102       C  0.09318154  0.91637270  0.92408209     0.19900
C1103       C  0.06236651  0.84093374  0.93375266    -0.54900
C1104       C  0.08948668  0.85611460  0.92918983     0.09100
C1105       C  0.05202957  0.92453294  0.96394604    -0.54500
C1106       C  0.07836955  0.94426248  0.95805334     0.09600
H1107       H  0.02918402  0.91422262  0.87646269     0.14200
H1108       H  0.11534828  0.92888793  0.91982278    -0.00100
H1109       H  0.05646886  0.79966025  0.93499172     0.14500
H1110       H  0.03934942  0.93415631  0.98798871     0.14200
O1111       O  0.49500766  0.37609408  0.98900562    -0.58300
C1112       C  0.06669580  0.30902821  0.00123866     0.74400
O1113       O  0.04226400  0.40605750  0.58045253    -0.59400
C1114       C  0.47330023  0.38570986  0.50822022     0.74300
C1115       C  0.02451328  0.23326191  0.54063752     0.76700
Cd1116     Cd  0.02220499  0.34238971  0.53726735     1.37500
O1117       O  0.04464854  0.32511959  0.98450836    -0.58300
O1118       O  0.01357347  0.25560124  0.51255856    -0.57100
C1119       C  0.05461039  0.42875974  0.55304765     0.76700
O1120       O  0.02839104  0.26085168  0.57008715    -0.59400
O1121       O  0.06999130  0.31635957  0.53605645    -0.57900
O1122       O  0.47302414  0.37129388  0.54239496    -0.57900
O1123       O  0.04924739  0.41396801  0.52018285    -0.57100
C1124       C  0.40434757  0.02282398  0.73193060     0.86000
C1125       C  0.41998161  0.96941757  0.73350688    -0.54200
C1126       C  0.44684169  0.97136080  0.72047495     0.09000
C1127       C  0.45650754  0.02461523  0.70796450     0.19900
C1128       C  0.42368935  0.06047811  0.75347582    -0.54900
C1129       C  0.45054070  0.06143323  0.74084038     0.09100
C1130       C  0.40793833  0.03962441  0.68969665    -0.54500
C1131       C  0.43593225  0.03929598  0.67717803     0.09600
H1132       H  0.41171997  0.93292004  0.74439605     0.14200
H1133       H  0.47902377  0.02333559  0.70021385    -0.00100
H1134       H  0.41694750  0.08359816  0.77738678     0.14500
H1135       H  0.39023671  0.04959343  0.67188009     0.14200
O1136       O  0.11209577  0.28378475  0.98320256    -0.58300
C1137       C  0.15928205  0.31651989  0.92503386     0.74400
O1138       O  0.11311650  0.13960272  0.92055732    -0.59400
C1139       C  0.08562098  0.27899861  0.98031963     0.74300
C1140       C  0.07352566  0.28327413  0.87188949     0.76700
Cd1141     Cd  0.11468147  0.23975500  0.92436582     1.37500
O1142       O  0.13408928  0.32829492  0.93175447    -0.58300
O1143       O  0.06842424  0.27480687  0.90579099    -0.57100
C1144       C  0.11535155  0.13262956  0.95577017     0.76700
O1145       O  0.09681283  0.26493193  0.85960505    -0.59400
O1146       O  0.16418539  0.26894185  0.91574043    -0.57900
O1147       O  0.07500447  0.24924825  0.95581272    -0.57900
O1148       O  0.12120160  0.17314841  0.97456163    -0.57100
C1149       C  0.08949955  0.99265075  0.98079467     0.86000
C1150       C  0.06746521  0.01949787  0.00660193    -0.54200
C1151       C  0.07674054  0.06163674  0.52679993     0.09000
C1152       C  0.10804736  0.07465189  0.51836432     0.19900
C1153       C  0.09988573  0.03799888  0.95586591    -0.54900
C1154       C  0.10932664  0.08131006  0.97489802     0.09100
C1155       C  0.11428334  0.98065683  0.00695917    -0.51300
C1156       C  0.12485816  0.02310779  0.52685417     0.09600
H1157       H  0.04536776  0.00960307  0.50701694     0.14200
H1158       H  0.11595632  0.10939469  0.53395675    -0.00100
H1159       H  0.09835471  0.03691613  0.92557053     0.14500
H1160       H  0.12300080  0.94148602  0.00724718     0.14200
C1161       C  0.01106543  0.11076981  0.58197425     0.86000
C1162       C  0.03235859  0.07079283  0.56600033    -0.54200
C1163       C  0.05650011  0.09290068  0.55109293     0.09000
C1164       C  0.05767166  0.15362245  0.55695115     0.19900
C1165       C  0.02847958  0.14102033  0.61200378    -0.54900
C1166       C  0.05337463  0.16248286  0.59874083     0.09100
C1167       C  0.00738529  0.14909457  0.54916474    -0.54500
C1168       C  0.03039140  0.17662206  0.54006972     0.09600
H1169       H  0.02794364  0.02896021  0.56489098     0.14200
H1170       H  0.07694334  0.17224768  0.54534312    -0.00100
H1171       H  0.02163949  0.14520406  0.64079847     0.14500
H1172       H  0.48696281  0.16083888  0.53818776     0.14200
C1173       C  0.48047855  0.09072561  0.59337181     0.86000
C1174       C  0.46919671  0.05224212  0.56421748    -0.54200
C1175       C  0.44285553  0.03251079  0.57009911     0.09000
C1176       C  0.42806544  0.06030407  0.60412186     0.19900
C1177       C  0.45887969  0.13576379  0.59453768    -0.54900
C1178       C  0.43176207  0.12056563  0.59909049     0.09100
C1179       C  0.47530848  0.06373366  0.63132943    -0.54500
C1180       C  0.44719433  0.05040958  0.63827847     0.09600
H1181       H  0.48186894  0.04266332  0.54015817     0.14200
H1182       H  0.40589938  0.04778170  0.60837359    -0.00100
H1183       H  0.46477644  0.17703895  0.59332132     0.14500
H1184       H  0.49208155  0.06232162  0.65170606     0.14200
O1185       O  0.79467738  0.15160205  0.04367428    -0.58300
C1186       C  0.72331348  0.09098342  0.01998473     0.74400
O1187       O  0.77836143  0.21587322  0.45813154    -0.59400
C1188       C  0.81671408  0.16771640  0.02692942     0.74300
C1189       C  0.80462543  0.04796172  0.47515380     0.76700
Cd1190     Cd  0.77221195  0.13432153  0.49093382     1.37500
O1191       O  0.74502567  0.10058474  0.03919388    -0.58300
O1192       O  0.79926048  0.06275375  0.00801821    -0.57100
C1193       C  0.77449245  0.24344705  0.48759114     0.76700
O1194       O  0.79227956  0.07066190  0.44774781    -0.59400
O1195       O  0.72303180  0.10541468  0.48581322    -0.57900
O1196       O  0.81999441  0.16040238  0.99210691    -0.57900
O1197       O  0.76356920  0.22108930  0.51567474    -0.57100
C1198       C  0.65433861  0.45389282  0.29628848     0.86000
C1199       C  0.66997233  0.50730030  0.29471455    -0.54200
C1200       C  0.69683206  0.50535897  0.30774795     0.09000
C1201       C  0.70649843  0.45210415  0.32025711     0.19900
C1202       C  0.67368147  0.41624176  0.27474298    -0.54900
C1203       C  0.70053258  0.41528786  0.28737946     0.09100
C1204       C  0.65792893  0.43708940  0.33852257    -0.54500
C1205       C  0.68592285  0.43741918  0.35104261     0.09600
H1206       H  0.66171048  0.54379759  0.28382426     0.14200
H1207       H  0.72901407  0.45338446  0.32800944    -0.00100
H1208       H  0.66694054  0.39312234  0.25083220     0.14500
H1209       H  0.64022752  0.42711750  0.35633763     0.14200
O1210       O  0.88410599  0.14842267  0.09643735    -0.58300
C1211       C  0.83564240  0.19775116  0.04784236     0.74400
O1212       O  0.84680345  0.21182569  0.16858396    -0.59400
C1213       C  0.90929619  0.16019697  0.10317650     0.74300
C1214       C  0.86535905  0.34408750  0.07244430     0.76700
Cd1215     Cd  0.86469358  0.23695262  0.10382439     1.37500
O1216       O  0.86211639  0.19292567  0.04498251    -0.58300
O1217       O  0.87123981  0.30358452  0.05365236    -0.57100
C1218       C  0.82353546  0.19341084  0.15628969     0.76700
O1219       O  0.86310199  0.33709885  0.10765289    -0.59400
O1220       O  0.82502736  0.22752483  0.07233611    -0.57900
O1221       O  0.91419702  0.20777392  0.11247662    -0.57900
O1222       O  0.81845238  0.20180039  0.12237401    -0.57100
C1223       C  0.83949263  0.48405881  0.04742648     0.86000
C1224       C  0.81745537  0.45720758  0.02162697    -0.54200
C1225       C  0.82672845  0.41507035  0.00142781     0.09000
C1226       C  0.85803716  0.40205889  0.00985370     0.19900
C1227       C  0.84988388  0.43871308  0.07235343    -0.54900
C1228       C  0.85932430  0.39540376  0.05331930     0.09100
C1229       C  0.86427345  0.49605452  0.02125401    -0.54500
C1230       C  0.87484690  0.45360233  0.00135800     0.09600
H1231       H  0.79535696  0.46709757  0.02121873     0.14200
H1232       H  0.86594348  0.36731650  0.99425978    -0.00100
H1233       H  0.84835837  0.43979698  0.10264933     0.14500
H1234       H  0.87299096  0.53522567  0.02096258     0.14200
C1235       C  0.76105097  0.36593710  0.44625621     0.86000
C1236       C  0.78234457  0.40591369  0.46223183    -0.54200
C1237       C  0.80648417  0.38380498  0.47714233     0.09000
C1238       C  0.80765308  0.32308395  0.47128986     0.19900
C1239       C  0.77846727  0.33568151  0.41623161    -0.54900
C1240       C  0.80336078  0.31422018  0.42950049     0.09100
C1241       C  0.75736572  0.32761514  0.47906703    -0.54500
C1242       C  0.78036985  0.30008723  0.48816743     0.09600
H1243       H  0.77793245  0.44774680  0.46333752     0.14200
H1244       H  0.82692259  0.30445887  0.48290212    -0.00100
H1245       H  0.77163024  0.33149529  0.38743629     0.14500
H1246       H  0.73694160  0.31587060  0.49003975     0.14200
C1247       C  0.73046603  0.38598535  0.43485292     0.86000
C1248       C  0.71918544  0.42447015  0.46400601    -0.54200
C1249       C  0.69284585  0.44420363  0.45812370     0.09000
C1250       C  0.67805474  0.41641292  0.42409974     0.19900
C1251       C  0.70886464  0.34095027  0.43368655    -0.54900
C1252       C  0.68174794  0.35615112  0.42913070     0.09100
C1253       C  0.72529813  0.41297730  0.39689368    -0.54500
C1254       C  0.69718456  0.42630465  0.38994324     0.09600
H1255       H  0.73185726  0.43404744  0.48806688     0.14200
H1256       H  0.65588938  0.42893810  0.41984726    -0.00100
H1257       H  0.71475959  0.29967520  0.43490146     0.14500
H1258       H  0.74207129  0.41438659  0.37651670     0.14200
O1259       O  0.77618809  0.87613167  0.48906422    -0.58300
C1260       C  0.70468542  0.80906227  0.50091268     0.74400
O1261       O  0.74250964  0.76089862  0.07016786    -0.59400
C1262       C  0.79791731  0.88570719  0.00824066     0.74300
C1263       C  0.71655375  0.92872592  0.05308643     0.76700
Cd1264     Cd  0.74901573  0.84237648  0.03731654     1.37500
O1265       O  0.72685324  0.82489186  0.48433933    -0.58300
O1266       O  0.72191264  0.91389393  0.02023218    -0.57100
C1267       C  0.74660897  0.73323857  0.04080968     0.76700
O1268       O  0.72892217  0.90607413  0.08049481    -0.59400
O1269       O  0.70122904  0.81662080  0.03567369    -0.57900
O1270       O  0.79821993  0.87127031  0.04241224    -0.57900
O1271       O  0.75778465  0.75550886  0.01286814    -0.57100
C1272       C  0.86685877  0.52286442  0.23198837     0.86000
C1273       C  0.84748885  0.56047128  0.25352788    -0.54200
C1274       C  0.82064613  0.56140233  0.24085855     0.09000
C1275       C  0.81471409  0.52460060  0.20796697     0.19900
C1276       C  0.85124281  0.46942974  0.23352146    -0.54900
C1277       C  0.82438935  0.47134571  0.22045814     0.09100
C1278       C  0.86328896  0.53970214  0.18975913    -0.54500
C1279       C  0.83530284  0.53934849  0.17721454     0.09600
H1280       H  0.85420915  0.58359425  0.27744630     0.14200
H1281       H  0.79220284  0.52329346  0.20019644    -0.00100
H1282       H  0.85951133  0.43293349  0.24440673     0.14500
H1283       H  0.88099529  0.54972362  0.17196574     0.14200
O1284       O  0.63713347  0.82813580  0.43186710    -0.58300
C1285       C  0.68575451  0.77913933  0.47992993     0.74400
O1286       O  0.65796713  0.63938962  0.42059502    -0.59400
C1287       C  0.61194004  0.81644425  0.42507541     0.74300
C1288       C  0.69765703  0.78299887  0.37165634     0.76700
Cd1289     Cd  0.65653235  0.73958384  0.42423865     1.37500
O1290       O  0.65927853  0.78369940  0.48299778    -0.58300
O1291       O  0.70290416  0.77391390  0.40543886    -0.57100
C1292       C  0.65587373  0.63252690  0.45583457     0.76700
O1293       O  0.67422787  0.76518172  0.35945504    -0.59400
O1294       O  0.69634360  0.74954444  0.45531133    -0.57900
O1295       O  0.60702378  0.76891002  0.41567684    -0.57900
O1296       O  0.65017382  0.67313405  0.47460838    -0.57100
C1297       C  0.68170799  0.49255998  0.48089282     0.86000
C1298       C  0.67132687  0.53790609  0.45596528    -0.54200
C1299       C  0.66188996  0.58122172  0.47498925     0.09000
C1300       C  0.66316246  0.57456811  0.01845667     0.19900
C1301       C  0.70373890  0.51939448  0.50670995    -0.54900
C1302       C  0.69446460  0.56153663  0.02690655     0.09100
C1303       C  0.65691753  0.48057037  0.50705341    -0.54500
C1304       C  0.64634221  0.52303303  0.02694219     0.09600
H1305       H  0.67286097  0.53682009  0.42566999     0.14200
H1306       H  0.65525367  0.60931458  0.03404276    -0.00100
H1307       H  0.72583315  0.50948160  0.50713283     0.14500
H1308       H  0.64819818  0.44140097  0.50734311     0.14200
C1309       C  0.76015219  0.61070890  0.08203393     0.86000
C1310       C  0.76378044  0.64907721  0.04924037    -0.54200
C1311       C  0.74075159  0.67658987  0.04022049     0.09000
C1312       C  0.71350197  0.65351004  0.05712036     0.19900
C1313       C  0.74275027  0.64087211  0.11211464    -0.54900
C1314       C  0.71783596  0.66230552  0.09890903     0.09100
C1315       C  0.73886473  0.57071210  0.06606951    -0.54500
C1316       C  0.71470176  0.59279791  0.05120739     0.09600
H1317       H  0.78418496  0.66085572  0.03822216     0.14200
H1318       H  0.69421099  0.67211672  0.04555809    -0.00100
H1319       H  0.74961386  0.64503205  0.14090165     0.14500
H1320       H  0.74329654  0.52888799  0.06493514     0.14200
C1321       C  0.79075285  0.59071544  0.09339572     0.86000
C1322       C  0.79593862  0.56381942  0.13137807    -0.54200
C1323       C  0.82405107  0.55050110  0.13832176     0.09000
C1324       C  0.84317066  0.56032640  0.10414564     0.19900
C1325       C  0.81235178  0.63576050  0.09448907    -0.54900
C1326       C  0.83947248  0.62058435  0.09904586     0.09100
C1327       C  0.80201958  0.55216858  0.06428059    -0.54500
C1328       C  0.82836107  0.53244355  0.07017012     0.09600
H1329       H  0.77917205  0.56244556  0.15176397     0.14200
H1330       H  0.86533821  0.54781538  0.10840301    -0.00100
H1331       H  0.80645251  0.67703234  0.09325446     0.14500
H1332       H  0.78933932  0.54254938  0.04023681     0.14200
O1333       O  0.79434498  0.32488593  0.29387078    -0.58300
C1334       C  0.72327954  0.38570618  0.26997294     0.74400
O1335       O  0.79227459  0.40608555  0.19772329    -0.59400
C1336       C  0.81651159  0.30905599  0.27729635     0.74300
C1337       C  0.77458780  0.23324042  0.23740052     0.76700
Cd1338     Cd  0.77218102  0.34237790  0.24089649     1.37500
O1339       O  0.74500827  0.37612678  0.28914986    -0.58300
O1340       O  0.76341025  0.25550600  0.26534120    -0.57100
C1341       C  0.80464344  0.42873097  0.22513312     0.76700
O1342       O  0.77868841  0.26090484  0.20804306    -0.59400
O1343       O  0.72297717  0.37127402  0.23580111    -0.57900
O1344       O  0.81996732  0.31661752  0.24253500    -0.57900
O1345       O  0.79928516  0.41389078  0.25798661    -0.57100
C1346       C  0.65433997  0.02285935  0.04622828     0.86000
C1347       C  0.67371079  0.06046193  0.02468341    -0.54200
C1348       C  0.70055375  0.06139327  0.03735151     0.09000
C1349       C  0.70648504  0.02459592  0.07024800     0.19900
C1350       C  0.66995397  0.96942328  0.04470120    -0.54900
C1351       C  0.69680803  0.97133945  0.05776333     0.09100
C1352       C  0.65791074  0.03970214  0.08845478    -0.54500
C1353       C  0.68589666  0.03934875  0.10099888     0.09600
H1354       H  0.66699036  0.08358385  0.50076197     0.14200
H1355       H  0.72899621  0.02328977  0.07801884    -0.00100
H1356       H  0.66168415  0.93292753  0.03381988     0.14500
H1357       H  0.64020486  0.04972629  0.10624717     0.14200
O1358       O  0.88406512  0.32813273  0.34633136    -0.58300
C1359       C  0.83544201  0.27913164  0.29827947     0.74400
O1360       O  0.86322775  0.13938669  0.35762217    -0.59400
C1361       C  0.90925582  0.31644481  0.35314304     0.74300
C1362       C  0.82353748  0.28301176  0.40655308     0.76700
Cd1363     Cd  0.86466191  0.23958476  0.35397526     1.37500
O1364       O  0.86191815  0.28369263  0.29521141    -0.58300
O1365       O  0.81829111  0.27392994  0.37277039    -0.57100
C1366       C  0.86532126  0.13252559  0.32238278     0.76700
O1367       O  0.84696470  0.26518851  0.41875595    -0.59400
O1368       O  0.82485212  0.24953802  0.32290061    -0.57900
O1369       O  0.91416871  0.26891359  0.36255410    -0.57900
O1370       O  0.87102035  0.17313482  0.30360816    -0.57100
C1371       C  0.83948802  0.99255743  0.29732450     0.86000
C1372       C  0.84986907  0.03790164  0.32225245    -0.54200
C1373       C  0.85930628  0.08122021  0.30322855     0.09000
C1374       C  0.85803473  0.07456981  0.25976082     0.19900
C1375       C  0.81745746  0.01939372  0.27150681    -0.54900
C1376       C  0.82673236  0.06153864  0.25131015     0.09100
C1377       C  0.86427815  0.98057072  0.27116487    -0.54500
C1378       C  0.87485446  0.02303503  0.25127633     0.09600
H1379       H  0.84833420  0.03681222  0.35254735     0.14200
H1380       H  0.86594434  0.10931809  0.24417417    -0.00100
H1381       H  0.79536301  0.00948023  0.27108384     0.14500
H1382       H  0.87299613  0.94140240  0.27087567     0.14200
C1383       C  0.76104604  0.11071170  0.19617823     0.86000
C1384       C  0.75741717  0.14907872  0.22896997    -0.54200
C1385       C  0.78044584  0.17659210  0.23799006     0.09000
C1386       C  0.80769587  0.15351375  0.22109248     0.19900
C1387       C  0.77844900  0.14087537  0.16609729    -0.54900
C1388       C  0.80336310  0.16230911  0.17930316     0.09100
C1389       C  0.78233252  0.07071508  0.21214551    -0.54500
C1390       C  0.80649545  0.09280089  0.22700805     0.09600
H1391       H  0.73701261  0.16085568  0.23998662     0.14200
H1392       H  0.82698712  0.17212104  0.23265483    -0.00100
H1393       H  0.77158659  0.14503451  0.13731030     0.14500
H1394       H  0.77789992  0.02888930  0.21328105     0.14200
C1395       C  0.73044543  0.09071995  0.18481492     0.86000
C1396       C  0.72526010  0.06382417  0.14683393    -0.54200
C1397       C  0.69714759  0.05050604  0.13989042     0.09000
C1398       C  0.67802717  0.06033163  0.17406540     0.19900
C1399       C  0.70884738  0.13576562  0.18371833    -0.54900
C1400       C  0.68172620  0.12058948  0.17916324     0.09100
C1401       C  0.71917737  0.05217319  0.21393185    -0.54500
C1402       C  0.69283565  0.03244846  0.20804233     0.09600
H1403       H  0.74202688  0.06244884  0.12644863     0.14200
H1404       H  0.65585968  0.04782092  0.16980859    -0.00100
H1405       H  0.71474709  0.17703643  0.18495266     0.14500
H1406       H  0.73185631  0.04255412  0.23797550     0.14200
O1407       O  0.77617505  0.60059331  0.23901029    -0.58300
C1408       C  0.70448334  0.66771530  0.25127345     0.74400
O1409       O  0.72892137  0.57066135  0.33045288    -0.59400
C1410       C  0.79788672  0.59099414  0.25822131     0.74300
C1411       C  0.74670270  0.74344717  0.29061330     0.76700
Cd1412     Cd  0.74898697  0.63432490  0.28726736     1.37500
O1413       O  0.72652164  0.65161156  0.23452870    -0.58300
O1414       O  0.75762377  0.72109636  0.26252702    -0.57100
C1415       C  0.71657590  0.54796178  0.30304725     0.76700
O1416       O  0.74283693  0.71586791  0.32007272    -0.59400
O1417       O  0.70120189  0.66039035  0.28609506    -0.57900
O1418       O  0.79816774  0.60542709  0.29239151    -0.57900
O1419       O  0.72194123  0.56275495  0.27018227    -0.57100
C1420       C  0.86686027  0.95389181  0.48192323     0.86000
C1421       C  0.85122816  0.00730010  0.48348961    -0.54200
C1422       C  0.82436872  0.00535878  0.47045493     0.09000
C1423       C  0.81470095  0.95210230  0.45795197     0.19900
C1424       C  0.84751562  0.91624379  0.00347176    -0.54900
C1425       C  0.82066493  0.91528931  0.49083382     0.09100
C1426       C  0.86327026  0.93708246  0.43969065    -0.54500
C1427       C  0.83527639  0.93741071  0.42716958     0.09600
H1428       H  0.85949118  0.04379829  0.99437704     0.14200
H1429       H  0.79218560  0.95338253  0.45019779    -0.00100
H1430       H  0.85425534  0.89312553  0.02738526     0.14500
H1431       H  0.88097179  0.92710627  0.42187725     0.14200
O1432       O  0.65908080  0.69292805  0.23322328    -0.58300
C1433       C  0.61190291  0.66020147  0.17503364     0.74400
O1434       O  0.65809880  0.83710891  0.17055453    -0.59400
C1435       C  0.68555491  0.69775201  0.23036159     0.74300
C1436       C  0.69766495  0.69341212  0.12191943     0.76700
Cd1437     Cd  0.65650594  0.73695950  0.17438003     1.37500
O1438       O  0.63709309  0.64842932  0.18177382    -0.58300
O1439       O  0.70275065  0.70181526  0.15583242    -0.57100
C1440       C  0.65583884  0.84409201  0.20576309     0.76700
O1441       O  0.67439546  0.71181924  0.10962445    -0.59400
O1442       O  0.60700224  0.70777722  0.16572821    -0.57900
O1443       O  0.69617035  0.72752746  0.20586716    -0.57900
O1444       O  0.64995712  0.80358514  0.22455285    -0.57100
C1445       C  0.68170392  0.98406092  0.23078579     0.86000
C1446       C  0.70374143  0.95720661  0.25658419    -0.54200
C1447       C  0.69446804  0.91506632  0.27678303     0.09000
C1448       C  0.66315901  0.90205508  0.26835705     0.19900
C1449       C  0.67131194  0.93871920  0.20585798    -0.54900
C1450       C  0.66187159  0.89540624  0.22489076     0.09100
C1451       C  0.65692394  0.99605248  0.25695934    -0.54500
C1452       C  0.64635026  0.95359764  0.27685539     0.09600
H1453       H  0.72583917  0.96709748  0.25699277     0.14200
H1454       H  0.65525239  0.86730958  0.28395015    -0.00100
H1455       H  0.67283746  0.93980811  0.17556224     0.14500
H1456       H  0.64820799  0.03522434  0.25725309     0.14200
C1457       C  0.76014541  0.86592754  0.33195557     0.86000
C1458       C  0.73885207  0.90590647  0.31598032    -0.54200
C1459       C  0.71471220  0.88379950  0.30106872     0.09000
C1460       C  0.71354268  0.82307777  0.30691939     0.19900
C1461       C  0.74272853  0.83566615  0.36197832    -0.54900
C1462       C  0.71783490  0.81420683  0.34870845     0.09100
C1463       C  0.76383041  0.82761197  0.29914337    -0.54500
C1464       C  0.74082572  0.80008632  0.29004069     0.09600
H1465       H  0.74326492  0.94774139  0.31487480     0.14200
H1466       H  0.69427292  0.80445393  0.29530648    -0.00100
H1467       H  0.74956498  0.83147627  0.39077411     0.14500
H1468       H  0.78425433  0.81586982  0.28817088     0.14200
C1469       C  0.79073113  0.88597213  0.34336101     0.86000
C1470       C  0.80201187  0.92446166  0.31420895    -0.54200
C1471       C  0.82835121  0.94419599  0.32009203     0.09000
C1472       C  0.84314303  0.91639976  0.35411434     0.19900
C1473       C  0.81233216  0.84093707  0.34452590    -0.54900
C1474       C  0.83944922  0.85613771  0.34908313     0.09100
C1475       C  0.79590003  0.91295829  0.38132139    -0.54500
C1476       C  0.82401395  0.92628711  0.38827094     0.09600
H1477       H  0.78934048  0.93404221  0.29014929     0.14200
H1478       H  0.86530829  0.92892525  0.35836656    -0.00100
H1479       H  0.80643644  0.79966180  0.34331032     0.14500
H1480       H  0.77912748  0.91436503  0.40169888     0.14200
O1481       O  0.54440603  0.15175382  0.23438260    -0.58300
C1482       C  0.97328798  0.09101250  0.25824835     0.74400
O1483       O  0.54228770  0.07062011  0.33050513    -0.59400
C1484       C  0.56655174  0.16764483  0.25097707     0.74300
C1485       C  0.52457618  0.24346360  0.29078567     0.76700
Cd1486     Cd  0.52219337  0.13432412  0.28732793     1.37500
O1487       O  0.99501555  0.10059995  0.23907038    -0.58300
O1488       O  0.51344077  0.22117446  0.26282469    -0.57100
C1489       C  0.55465224  0.04796696  0.30309532     0.76700
O1490       O  0.52864377  0.21581926  0.32016135    -0.59400
O1491       O  0.97298806  0.10543043  0.29242310    -0.57900
O1492       O  0.56997877  0.16015047  0.28575153    -0.57900
O1493       O  0.54928925  0.06279877  0.27024125    -0.57100
C1494       C  0.90432890  0.45384486  0.48198136     0.86000
C1495       C  0.92369846  0.41623893  0.00352533    -0.54200
C1496       C  0.95054103  0.41530286  0.49085548     0.09000
C1497       C  0.95647397  0.45210064  0.45795942     0.19900
C1498       C  0.91994607  0.50727797  0.48350861    -0.54900
C1499       C  0.94680001  0.50535868  0.47044584     0.09100
C1500       C  0.90789868  0.43700124  0.43975404    -0.54500
C1501       C  0.93588478  0.43734938  0.42720898     0.09600
H1502       H  0.91697785  0.39311888  0.02744691     0.14200
H1503       H  0.97898476  0.45340364  0.45018715    -0.00100
H1504       H  0.91167841  0.54377336  0.99439230     0.14500
H1505       H  0.89019189  0.42697867  0.42196191     0.14200
O1506       O  0.63408161  0.14856719  0.18187059    -0.58300
C1507       C  0.58548027  0.19757922  0.22999393     0.74400
O1508       O  0.61323870  0.33731585  0.17059961    -0.59400
C1509       C  0.65927282  0.16026246  0.17506789     0.74300
C1510       C  0.57355037  0.19368471  0.12169524     0.76700
Cd1511     Cd  0.61467845  0.23711652  0.17426634     1.37500
O1512       O  0.61195719  0.19301154  0.23304371    -0.58300
O1513       O  0.56831680  0.20271005  0.15548932    -0.57100
C1514       C  0.61532638  0.34418657  0.20583870     0.76700
O1515       O  0.59696517  0.21155691  0.10948570    -0.59400
O1516       O  0.57488438  0.22717461  0.20537881    -0.57900
O1517       O  0.66418694  0.20780235  0.16567912    -0.57900
O1518       O  0.62102676  0.30358437  0.22461991    -0.57100
C1519       C  0.58948097  0.48415292  0.23088692     0.86000
C1520       C  0.59986609  0.43880894  0.20596038    -0.54200
C1521       C  0.60930378  0.39549301  0.22498699     0.09000
C1522       C  0.60802688  0.40214417  0.26845383     0.19900
C1523       C  0.56744899  0.45731331  0.25670037    -0.54900
C1524       C  0.57672287  0.41517014  0.27689751     0.09100
C1525       C  0.61426931  0.49614339  0.25705051    -0.54500
C1526       C  0.62484543  0.45368049  0.27694059     0.09600
H1527       H  0.59833441  0.43989674  0.17566524     0.14200
H1528       H  0.61593517  0.36739717  0.28404214    -0.00100
H1529       H  0.54535387  0.46722167  0.25711884     0.14500
H1530       H  0.62298751  0.53531365  0.25734031     0.14200
C1531       C  0.51103277  0.36598091  0.33201907     0.86000
C1532       C  0.50740195  0.32762156  0.29922240    -0.54200
C1533       C  0.53043061  0.30011343  0.29019457     0.09000
C1534       C  0.55768166  0.32318792  0.30709437     0.19900
C1535       C  0.52843684  0.33580758  0.36209375    -0.54900
C1536       C  0.55335107  0.31438026  0.34888267     0.09100
C1537       C  0.53232009  0.40598218  0.31605572    -0.54500
C1538       C  0.55648261  0.38390091  0.30118996     0.09600
H1539       H  0.98699720  0.31584360  0.28820809     0.14200
H1540       H  0.57697225  0.30458472  0.29552808    -0.00100
H1541       H  0.52157589  0.33164046  0.39088144     0.14500
H1542       H  0.52788941  0.44780797  0.31492702     0.14200
C1543       C  0.98043265  0.38597497  0.34338726     0.86000
C1544       C  0.97524792  0.41286079  0.38137325    -0.54200
C1545       C  0.94713621  0.42618570  0.38831741     0.09000
C1546       C  0.92801626  0.41637259  0.35414047     0.19900
C1547       C  0.95883050  0.34093447  0.34447619    -0.54900
C1548       C  0.93171048  0.35611509  0.34903577     0.09100
C1549       C  0.96916826  0.42453350  0.31427638    -0.54500
C1550       C  0.94282808  0.44426148  0.32016768     0.09600
H1551       H  0.99201386  0.41422734  0.40176001     0.14200
H1552       H  0.90584960  0.42888697  0.35839870    -0.00100
H1553       H  0.96472717  0.29966182  0.34323851     0.14500
H1554       H  0.98184836  0.43415733  0.29023457     0.14200
O1555       O  0.97656311  0.82508727  0.29371634    -0.58300
C1556       C  0.54789659  0.88570760  0.27000128     0.74400
O1557       O  0.99279743  0.76085916  0.20812742    -0.59400
C1558       C  0.95451078  0.80900895  0.27699183     0.74300
C1559       C  0.96658481  0.92875788  0.22517497     0.76700
Cd1560     Cd  0.99899355  0.84238805  0.24095140     1.37500
O1561       O  0.52618741  0.87609479  0.28921407    -0.58300
O1562       O  0.97194382  0.91395390  0.25803878    -0.57100
C1563       C  0.49668644  0.73326310  0.23757274     0.76700
O1564       O  0.97893508  0.90606694  0.19777008    -0.59400
O1565       O  0.54817415  0.87129201  0.23582724    -0.57900
O1566       O  0.95120841  0.81635718  0.24217671    -0.57900
O1567       O  0.50763701  0.75559648  0.26564570    -0.57100
C1568       C  0.61684962  0.52282273  0.04628997     0.86000
C1569       C  0.60121439  0.46941731  0.04471592    -0.54200
C1570       C  0.57435481  0.47136021  0.05774891     0.09000
C1571       C  0.56469023  0.52461388  0.07025822     0.19900
C1572       C  0.59750802  0.56047914  0.02474478    -0.54900
C1573       C  0.57065705  0.56143430  0.03738207     0.09100
C1574       C  0.61326007  0.53962191  0.08852368    -0.54500
C1575       C  0.58526614  0.53929419  0.10104294     0.09600
H1576       H  0.60947497  0.43291995  0.03382568     0.14200
H1577       H  0.54217410  0.52333330  0.07800973    -0.00100
H1578       H  0.60424964  0.58360056  0.50083393     0.14500
H1579       H  0.63096206  0.54959175  0.10633907     0.14200
O1580       O  0.88710810  0.82828157  0.34646517    -0.58300
C1581       C  0.93558393  0.77898414  0.29791387     0.74400
O1582       O  0.92438351  0.76492291  0.41862699    -0.59400
C1583       C  0.86191484  0.81650680  0.35318562     0.74300
C1584       C  0.90584706  0.63262286  0.32245443     0.76700
Cd1585     Cd  0.90651660  0.73974323  0.35386503     1.37500
O1586       O  0.90910955  0.78377367  0.29502873    -0.58300
O1587       O  0.89998910  0.67314301  0.30366689    -0.57100
C1588       C  0.94767063  0.78326842  0.40634235     0.76700
O1589       O  0.90808927  0.63959071  0.35766674    -0.59400
O1590       O  0.94619778  0.74923457  0.32242446    -0.57900
O1591       O  0.85701101  0.76892963  0.36248487    -0.57900
O1592       O  0.95277288  0.77480074  0.37244174    -0.57100
C1593       C  0.93169818  0.49265028  0.29742563     0.86000
C1594       C  0.95373279  0.51950014  0.27161895    -0.54200
C1595       C  0.94445802  0.56164019  0.25142054     0.09000
C1596       C  0.91315136  0.57465522  0.25985641     0.19900
C1597       C  0.92131246  0.53799447  0.32235447    -0.54900
C1598       C  0.91187202  0.58130777  0.30332335     0.09100
C1599       C  0.90691433  0.48065853  0.27126045    -0.54500
C1600       C  0.89634001  0.52311181  0.25136529     0.09600
H1601       H  0.97582981  0.50960539  0.27120408     0.14200
H1602       H  0.90524292  0.60939952  0.24426452    -0.00100
H1603       H  0.92284316  0.53690740  0.35265025     0.14500
H1604       H  0.89819779  0.44148754  0.27097065     0.14200
C1605       C  0.51013351  0.61077126  0.19624200     0.86000
C1606       C  0.98883973  0.57079410  0.21221874    -0.54200
C1607       C  0.96469871  0.59290227  0.22712497     0.09000
C1608       C  0.96352785  0.65362311  0.22126302     0.19900
C1609       C  0.99271943  0.64102062  0.16621079    -0.54900
C1610       C  0.96782474  0.66248226  0.17947309     0.09100
C1611       C  0.51381431  0.64909661  0.22904904    -0.54500
C1612       C  0.99080831  0.67662337  0.23814214     0.09600
H1613       H  0.99325378  0.52896098  0.21333036     0.14200
H1614       H  0.94425667  0.67224761  0.23287042    -0.00100
H1615       H  0.99955908  0.64520369  0.13741591     0.14500
H1616       H  0.53423683  0.66084169  0.24002531     0.14200
C1617       C  0.54072010  0.59072773  0.18484536     0.86000
C1618       C  0.55200120  0.55224346  0.21400101    -0.54200
C1619       C  0.57834183  0.53251242  0.20811954     0.09000
C1620       C  0.59313273  0.56030746  0.17409637     0.19900
C1621       C  0.56231966  0.63576644  0.18367755    -0.54900
C1622       C  0.58943699  0.62056893  0.17912459     0.09100
C1623       C  0.54588996  0.56373689  0.14688879    -0.54500
C1624       C  0.57400398  0.55041239  0.13994078     0.09600
H1625       H  0.53932869  0.54266296  0.23806127     0.14200
H1626       H  0.61529867  0.54778550  0.16984524    -0.00100
H1627       H  0.55642360  0.67704044  0.18489135     0.14500
H1628       H  0.52911696  0.56232463  0.12651248     0.14200
O1629       O  0.52618361  0.60060256  0.03915737    -0.58300
C1630       C  0.95464140  0.66763331  0.02724635     0.74400
O1631       O  0.99255348  0.71582447  0.45807004    -0.59400
C1632       C  0.54790994  0.59101740  0.01997708     0.74300
C1633       C  0.96654803  0.54796980  0.47512625     0.76700
Cd1634     Cd  0.99900349  0.63432658  0.49090166     1.37500
O1635       O  0.97678699  0.65174784  0.04384433    -0.58300
O1636       O  0.97191001  0.56279277  0.00798208    -0.57100
C1637       C  0.49661775  0.74346510  0.48744701     0.76700
O1638       O  0.97891371  0.57063050  0.44771887    -0.59400
O1639       O  0.95121551  0.66013340  0.99247273    -0.57900
O1640       O  0.54820831  0.60543943  0.48580236    -0.57900
O1641       O  0.50775034  0.72117361  0.51540993    -0.57100
C1642       C  0.61686906  0.95383969  0.29623577     0.86000
C1643       C  0.59749861  0.91623315  0.27469564    -0.54200
C1644       C  0.57065630  0.91529747  0.28736637     0.09000
C1645       C  0.56472443  0.95209519  0.32026051     0.19900
C1646       C  0.60125232  0.00727256  0.29470614    -0.54900
C1647       C  0.57439895  0.00535332  0.30777106     0.09100
C1648       C  0.61329989  0.93699669  0.33846496    -0.54500
C1649       C  0.58531371  0.93734479  0.35101122     0.09600
H1650       H  0.60421811  0.89311340  0.25077471     0.14200
H1651       H  0.54221361  0.95339806  0.32803329    -0.00100
H1652       H  0.60952036  0.04376887  0.28382053     0.14500
H1653       H  0.63100638  0.92697517  0.35625676     0.14200
O1654       O  0.90923615  0.69300212  0.04517619    -0.58300
C1655       C  0.86192551  0.66025714  0.10314694     0.74400
O1656       O  0.92423552  0.71155657  0.16872941    -0.59400
C1657       C  0.93571308  0.69757293  0.04822351     0.74300
C1658       C  0.90586966  0.84418453  0.07238132     0.76700
Cd1659     Cd  0.90651899  0.73711199  0.10395060     1.37500
O1660       O  0.88711790  0.64856121  0.09635515    -0.58300
O1661       O  0.90016979  0.80358413  0.05359983    -0.57100
C1662       C  0.94764877  0.69368228  0.15651823     0.76700
O1663       O  0.90795837  0.83731002  0.10762024    -0.59400
O1664       O  0.85701012  0.70779727  0.11253038    -0.57900
O1665       O  0.94630958  0.72717654  0.07283195    -0.57900
O1666       O  0.95288035  0.70270383  0.12272267    -0.57100
C1667       C  0.93171555  0.98415302  0.04733165     0.86000
C1668       C  0.92132864  0.93880824  0.07225883    -0.54200
C1669       C  0.91189133  0.89549317  0.05323308     0.09000
C1670       C  0.91316988  0.90214542  0.00976607     0.19900
C1671       C  0.95374807  0.95731412  0.02152045    -0.54900
C1672       C  0.94447423  0.91517166  0.00132433     0.09100
C1673       C  0.90692805  0.99614364  0.02116530    -0.54500
C1674       C  0.89635261  0.95368108  0.00127508     0.09600
H1675       H  0.92285930  0.93989442  0.10255524     0.14200
H1676       H  0.90526197  0.86739908  0.99417885    -0.00100
H1677       H  0.97584379  0.96722277  0.02110256     0.14500
H1678       H  0.89820993  0.03531301  0.02087364     0.14200
C1679       C  0.51016395  0.86597977  0.44620765     0.86000
C1680       C  0.51379363  0.82762191  0.47900712    -0.54200
C1681       C  0.99076417  0.80011447  0.48803674     0.09000
C1682       C  0.96351373  0.82318837  0.47113481     0.19900
C1683       C  0.99275934  0.83580562  0.41613506    -0.54900
C1684       C  0.96784448  0.81437859  0.42934726     0.09100
C1685       C  0.98887754  0.90598192  0.46216809    -0.54500
C1686       C  0.96471426  0.88390139  0.47703489     0.09600
H1687       H  0.53419811  0.81584389  0.49002214     0.14200
H1688       H  0.94422264  0.80458541  0.48270219    -0.00100
H1689       H  0.99962069  0.83163674  0.38734817     0.14500
H1690       H  0.99330903  0.94780637  0.46329412     0.14200
C1691       C  0.54076471  0.88597367  0.43483818     0.86000
C1692       C  0.54595004  0.91285819  0.39684985    -0.54200
C1693       C  0.57406195  0.92618364  0.38990429     0.09000
C1694       C  0.59318154  0.91637266  0.42408208     0.19900
C1695       C  0.56236647  0.84093365  0.43375270    -0.54900
C1696       C  0.58948668  0.85611466  0.42918983     0.09100
C1697       C  0.55202955  0.92453306  0.46394607    -0.54500
C1698       C  0.57836955  0.94426253  0.45805337     0.09600
H1699       H  0.52918407  0.91422261  0.37646259     0.14200
H1700       H  0.61534824  0.92888740  0.41982278    -0.00100
H1701       H  0.55646901  0.79966150  0.43499166     0.14500
H1702       H  0.53934938  0.93415646  0.48798872     0.14200
O1703       O  0.99500775  0.37609416  0.48900575    -0.58300
C1704       C  0.56669578  0.30902820  0.50123864     0.74400
O1705       O  0.54226399  0.40605738  0.08045245    -0.59400
C1706       C  0.97330021  0.38570986  0.00822023     0.74300
C1707       C  0.52451322  0.23326189  0.04063752     0.76700
Cd1708     Cd  0.52220496  0.34238969  0.03726720     1.37500
O1709       O  0.54464850  0.32511960  0.48450837    -0.58300
O1710       O  0.51357341  0.25560118  0.01255854    -0.57100
C1711       C  0.55461042  0.42875968  0.05304764     0.76700
O1712       O  0.52839100  0.26085170  0.07008710    -0.59400
O1713       O  0.56999124  0.31635959  0.03605643    -0.57900
O1714       O  0.97302420  0.37129412  0.04239503    -0.57900
O1715       O  0.54924744  0.41396803  0.02018282    -0.57100
C1716       C  0.90434756  0.02282385  0.23193054     0.86000
C1717       C  0.91998157  0.96941745  0.23350687    -0.54200
C1718       C  0.94684168  0.97136069  0.22047494     0.09000
C1719       C  0.95650754  0.02461514  0.20796449     0.19900
C1720       C  0.92368934  0.06047797  0.25347577    -0.54900
C1721       C  0.95054072  0.06143310  0.24084033     0.09100
C1722       C  0.90793831  0.03962436  0.18969664    -0.54500
C1723       C  0.93593226  0.03929598  0.17717802     0.09600
H1724       H  0.91172000  0.93292005  0.24439600     0.14200
H1725       H  0.97902378  0.02333549  0.20021386    -0.00100
H1726       H  0.91694758  0.08359740  0.27738646     0.14500
H1727       H  0.89023670  0.04959352  0.17188015     0.14200
O1728       O  0.61209577  0.28378471  0.48320252    -0.58300
C1729       C  0.65928199  0.31652015  0.42503382     0.74400
O1730       O  0.61311645  0.13960279  0.42055733    -0.59400
C1731       C  0.58562097  0.27899848  0.48031965     0.74300
C1732       C  0.57352565  0.28327420  0.37188950     0.76700
Cd1733     Cd  0.61468145  0.23975500  0.42436581     1.37500
O1734       O  0.63408921  0.32829502  0.43175449    -0.58300
O1735       O  0.56842416  0.27480671  0.40579095    -0.57100
C1736       C  0.61535161  0.13262956  0.45577016     0.76700
O1737       O  0.59681284  0.26493204  0.35960507    -0.59400
O1738       O  0.66418536  0.26894211  0.41574046    -0.57900
O1739       O  0.57500444  0.24924822  0.45581269    -0.57900
O1740       O  0.62120170  0.17314833  0.47456160    -0.57100
C1741       C  0.58949957  0.99265086  0.48079470     0.86000
C1742       C  0.56746522  0.01949789  0.50660198    -0.54200
C1743       C  0.57674050  0.06163664  0.02679995     0.09000
C1744       C  0.60804738  0.07465174  0.01836431     0.19900
C1745       C  0.59988575  0.03799901  0.45586596    -0.54900
C1746       C  0.60932666  0.08131021  0.47489807     0.09100
C1747       C  0.61428333  0.98065688  0.50695917    -0.51300
C1748       C  0.62485815  0.02310763  0.02685411     0.09600
H1749       H  0.54536760  0.00960291  0.00701700     0.14200
H1750       H  0.61595635  0.10939377  0.03395655    -0.00100
H1751       H  0.59835474  0.03691625  0.42557059     0.14500
H1752       H  0.62300077  0.94148599  0.50724717     0.14200
C1753       C  0.51106541  0.11077008  0.08197424     0.86000
C1754       C  0.53235857  0.07079290  0.06600031    -0.54200
C1755       C  0.55650012  0.09290089  0.05109289     0.09000
C1756       C  0.55767170  0.15362253  0.05695107     0.19900
C1757       C  0.52847960  0.14102047  0.11200373    -0.54900
C1758       C  0.55337469  0.16248285  0.09874080     0.09100
C1759       C  0.50738525  0.14909473  0.04916476    -0.54500
C1760       C  0.53039137  0.17662211  0.04006971     0.09600
H1761       H  0.52794375  0.02896172  0.06489098     0.14200
H1762       H  0.57694326  0.17224742  0.04534306    -0.00100
H1763       H  0.52163964  0.14520365  0.14079846     0.14500
H1764       H  0.98696273  0.16083916  0.03818763     0.14200
C1765       C  0.98047858  0.09072574  0.09337178     0.86000
C1766       C  0.96919672  0.05224210  0.06421757    -0.54200
C1767       C  0.94285562  0.03251083  0.07009902     0.09000
C1768       C  0.92806552  0.06030414  0.10412176     0.19900
C1769       C  0.95887967  0.13576392  0.09453762    -0.54900
C1770       C  0.93176212  0.12056575  0.09909043     0.09100
C1771       C  0.97530851  0.06373378  0.13132951    -0.54500
C1772       C  0.94719438  0.05040957  0.13827844     0.09600
H1773       H  0.98186922  0.04266293  0.04015748     0.14200
H1774       H  0.90589958  0.04778193  0.10837329    -0.00100
H1775       H  0.96477650  0.17703967  0.09332133     0.14500
H1776       H  0.99208152  0.06232183  0.15170617     0.14200
O1777       O  0.79467733  0.15160211  0.54367429    -0.58300
C1778       C  0.72331351  0.09098340  0.51998467     0.74400
O1779       O  0.77836154  0.21587325  0.95813160    -0.59400
C1780       C  0.81671407  0.16771642  0.52692947     0.74300
C1781       C  0.80462541  0.04796176  0.97515382     0.76700
Cd1782     Cd  0.77221194  0.13432155  0.99093380     1.37500
O1783       O  0.74502565  0.10058491  0.53919392    -0.58300
O1784       O  0.79926051  0.06275367  0.50801818    -0.57100
C1785       C  0.77449241  0.24344718  0.98759111     0.76700
O1786       O  0.79227952  0.07066192  0.94774782    -0.59400
O1787       O  0.72303177  0.10541470  0.98581329    -0.57900
O1788       O  0.81999443  0.16040223  0.49210699    -0.57900
O1789       O  0.76356913  0.22108939  0.01567465    -0.57100
C1790       C  0.65433861  0.45389280  0.79628846     0.86000
C1791       C  0.66997233  0.50730049  0.79471446    -0.54200
C1792       C  0.69683204  0.50535901  0.80774789     0.09000
C1793       C  0.70649840  0.45210418  0.82025711     0.19900
C1794       C  0.67368152  0.41624165  0.77474295    -0.54900
C1795       C  0.70053257  0.41528776  0.78737946     0.09100
C1796       C  0.65792890  0.43708936  0.83852258    -0.54500
C1797       C  0.68592277  0.43741918  0.85104262     0.09600
H1798       H  0.66171063  0.54379737  0.78382452     0.14200
H1799       H  0.72901350  0.45338455  0.82800938    -0.00100
H1800       H  0.66694069  0.39312217  0.75083210     0.14500
H1801       H  0.64022742  0.42711739  0.85633768     0.14200
O1802       O  0.88410609  0.14842286  0.59643742    -0.58300
C1803       C  0.83564246  0.19775131  0.54784235     0.74400
O1804       O  0.84680346  0.21182585  0.66858402    -0.59400
C1805       C  0.90929628  0.16019709  0.60317655     0.74300
C1806       C  0.86535910  0.34408748  0.57244431     0.76700
Cd1807     Cd  0.86469363  0.23695267  0.60382440     1.37500
O1808       O  0.86211649  0.19292568  0.54498252    -0.58300
O1809       O  0.87123994  0.30358451  0.55365236    -0.57100
C1810       C  0.82353554  0.19341074  0.65628969     0.76700
O1811       O  0.86310188  0.33709888  0.60765289    -0.59400
O1812       O  0.82502738  0.22752489  0.57233618    -0.57900
O1813       O  0.91419705  0.20777396  0.61247689    -0.57900
O1814       O  0.81845248  0.20180013  0.62237397    -0.57100
C1815       C  0.83949266  0.48405885  0.54742644     0.86000
C1816       C  0.81745532  0.45720754  0.52162698    -0.54200
C1817       C  0.82672841  0.41507024  0.50142786     0.09000
C1818       C  0.85803712  0.40205885  0.50985378     0.19900
C1819       C  0.84988386  0.43871302  0.57235348    -0.54900
C1820       C  0.85932432  0.39540373  0.55331936     0.09100
C1821       C  0.86427351  0.49605471  0.52125399    -0.54500
C1822       C  0.87484688  0.45360241  0.50135803     0.09600
H1823       H  0.79535716  0.46709759  0.52121872     0.14200
H1824       H  0.86594335  0.36731658  0.49425994    -0.00100
H1825       H  0.84835867  0.43979711  0.60264935     0.14500
H1826       H  0.87299099  0.53522598  0.52096247     0.14200
C1827       C  0.76105101  0.36593714  0.94625611     0.86000
C1828       C  0.78234464  0.40591376  0.96223174    -0.54200
C1829       C  0.80648420  0.38380504  0.97714237     0.09000
C1830       C  0.80765312  0.32308408  0.97128980     0.19900
C1831       C  0.77846723  0.33568161  0.91623150    -0.54900
C1832       C  0.80336072  0.31422023  0.92950037     0.09100
C1833       C  0.75736572  0.32761517  0.97906701    -0.54500
C1834       C  0.78036990  0.30008738  0.98816752     0.09600
H1835       H  0.77793251  0.44774680  0.96333750     0.14200
H1836       H  0.82692272  0.30445901  0.98290196    -0.00100
H1837       H  0.77163001  0.33149513  0.88743602     0.14500
H1838       H  0.73694176  0.31587077  0.99003972     0.14200
C1839       C  0.73046605  0.38598514  0.93485287     0.86000
C1840       C  0.71918537  0.42447001  0.96400595    -0.54200
C1841       C  0.69284583  0.44420359  0.95812366     0.09000
C1842       C  0.67805471  0.41641268  0.92409979     0.19900
C1843       C  0.70886473  0.34095009  0.93368651    -0.54900
C1844       C  0.68174805  0.35615071  0.92913075     0.09100
C1845       C  0.72529815  0.41297716  0.89689359    -0.54500
C1846       C  0.69718455  0.42630464  0.88994327     0.09600
H1847       H  0.73185724  0.43404752  0.98806689     0.14200
H1848       H  0.65588935  0.42893737  0.91984745    -0.00100
H1849       H  0.71475995  0.29967385  0.93490160     0.14500
H1850       H  0.74207128  0.41438677  0.87651685     0.14200
O1851       O  0.77618802  0.87613157  0.98906417    -0.58300
C1852       C  0.70468536  0.80906240  0.00091263     0.74400
O1853       O  0.74250969  0.76089858  0.57016787    -0.59400
C1854       C  0.79791736  0.88570716  0.50824067     0.74300
C1855       C  0.71655370  0.92872594  0.55308645     0.76700
Cd1856     Cd  0.74901570  0.84237648  0.53731655     1.37500
O1857       O  0.72685321  0.82489188  0.98433929    -0.58300
O1858       O  0.72191260  0.91389403  0.52023219    -0.57100
C1859       C  0.74660895  0.73323847  0.54080968     0.76700
O1860       O  0.72892202  0.90607402  0.58049487    -0.59400
O1861       O  0.70122901  0.81662098  0.53567367    -0.57900
O1862       O  0.79821988  0.87127035  0.54241225    -0.57900
O1863       O  0.75778452  0.75550885  0.51286809    -0.57100
C1864       C  0.86685879  0.52286468  0.73198840     0.86000
C1865       C  0.84748886  0.56047137  0.75352791    -0.54200
C1866       C  0.82064620  0.56140248  0.74085862     0.09000
C1867       C  0.81471403  0.52460080  0.70796696     0.19900
C1868       C  0.85124282  0.46942997  0.73352145    -0.54900
C1869       C  0.82438929  0.47134604  0.72045812     0.09100
C1870       C  0.86328890  0.53970218  0.68975915    -0.54500
C1871       C  0.83530281  0.53934852  0.67721453     0.09600
H1872       H  0.85420923  0.58359515  0.77744664     0.14200
H1873       H  0.79220287  0.52329369  0.70019650    -0.00100
H1874       H  0.85951115  0.43293467  0.74440659     0.14500
H1875       H  0.88099535  0.54972359  0.67196555     0.14200
O1876       O  0.63713343  0.82813574  0.93186709    -0.58300
C1877       C  0.68575446  0.77913934  0.97992996     0.74400
O1878       O  0.65796722  0.63938945  0.92059503    -0.59400
C1879       C  0.61194000  0.81644425  0.92507541     0.74300
C1880       C  0.69765698  0.78299895  0.87165637     0.76700
Cd1881     Cd  0.65653230  0.73958379  0.92423865     1.37500
O1882       O  0.65927850  0.78369943  0.98299782    -0.58300
O1883       O  0.70290409  0.77391392  0.90543890    -0.57100
C1884       C  0.65587374  0.63252672  0.95583456     0.76700
O1885       O  0.67422785  0.76518182  0.85945503    -0.59400
O1886       O  0.69634354  0.74954445  0.95531133    -0.57900
O1887       O  0.60702376  0.76891002  0.91567682    -0.57900
O1888       O  0.65017370  0.67313386  0.97460836    -0.57100
C1889       C  0.68170810  0.49255990  0.98089282     0.86000
C1890       C  0.67132689  0.53790587  0.95596522    -0.54200
C1891       C  0.66188995  0.58122145  0.97498916     0.09000
C1892       C  0.66316246  0.57456830  0.51845673     0.19900
C1893       C  0.70373895  0.51939455  0.00670991    -0.54900
C1894       C  0.69446450  0.56153673  0.52690662     0.09100
C1895       C  0.65691764  0.48057029  0.00705348    -0.54500
C1896       C  0.64634219  0.52303318  0.52694222     0.09600
H1897       H  0.67286088  0.53681957  0.92566986     0.14200
H1898       H  0.65525378  0.60931532  0.53404293    -0.00100
H1899       H  0.72583389  0.50948177  0.00713242     0.14500
H1900       H  0.64819827  0.44140080  0.00734304     0.14200
C1901       C  0.76015208  0.61070872  0.58203400     0.86000
C1902       C  0.76378036  0.64907705  0.54924039    -0.54200
C1903       C  0.74075143  0.67658967  0.54022045     0.09000
C1904       C  0.71350192  0.65350983  0.55712040     0.19900
C1905       C  0.74275020  0.64087207  0.61211468    -0.54900
C1906       C  0.71783590  0.66230546  0.59890900     0.09100
C1907       C  0.73886469  0.57071209  0.56606956    -0.54500
C1908       C  0.71470172  0.59279768  0.55120750     0.09600
H1909       H  0.78418427  0.66085535  0.53822253     0.14200
H1910       H  0.69421084  0.67211643  0.54555804    -0.00100
H1911       H  0.74961363  0.64503213  0.64090142     0.14500
H1912       H  0.74329666  0.52888691  0.56493525     0.14200
C1913       C  0.79075275  0.59071545  0.59339577     0.86000
C1914       C  0.79593856  0.56381944  0.63137806    -0.54200
C1915       C  0.82405095  0.55050127  0.63832183     0.09000
C1916       C  0.84317063  0.56032637  0.60414564     0.19900
C1917       C  0.81235181  0.63576044  0.59448907    -0.54900
C1918       C  0.83947247  0.62058431  0.59904588     0.09100
C1919       C  0.80201949  0.55216869  0.56428057    -0.54500
C1920       C  0.82836094  0.53244352  0.57017008     0.09600
H1921       H  0.77917158  0.56244569  0.65176443     0.14200
H1922       H  0.86533802  0.54781569  0.60840299    -0.00100
H1923       H  0.80645261  0.67703251  0.59325437     0.14500
H1924       H  0.78933906  0.54254954  0.54023649     0.14200
O1925       O  0.79434495  0.32488607  0.79387086    -0.58300
C1926       C  0.72327961  0.38570619  0.76997298     0.74400
O1927       O  0.79227456  0.40608565  0.69772330    -0.59400
C1928       C  0.81651155  0.30905603  0.77729641     0.74300
C1929       C  0.77458798  0.23324044  0.73740053     0.76700
Cd1930     Cd  0.77218106  0.34237795  0.74089650     1.37500
O1931       O  0.74500829  0.37612673  0.78914998    -0.58300
O1932       O  0.76341035  0.25550597  0.76534114    -0.57100
C1933       C  0.80464342  0.42873113  0.72513311     0.76700
O1934       O  0.77868850  0.26090489  0.70804304    -0.59400
O1935       O  0.72297730  0.37127412  0.73580109    -0.57900
O1936       O  0.81996733  0.31661766  0.74253505    -0.57900
O1937       O  0.79928515  0.41389093  0.75798660    -0.57100
C1938       C  0.65433992  0.02285946  0.54622832     0.86000
C1939       C  0.67371075  0.06046206  0.52468340    -0.54200
C1940       C  0.70055371  0.06139332  0.53735145     0.09000
C1941       C  0.70648501  0.02459584  0.57024797     0.19900
C1942       C  0.66995393  0.96942334  0.54470120    -0.54900
C1943       C  0.69680796  0.97133939  0.55776327     0.09100
C1944       C  0.65791074  0.03970224  0.58845478    -0.54500
C1945       C  0.68589659  0.03934879  0.60099890     0.09600
H1946       H  0.66699056  0.08358326  0.00076211     0.14200
H1947       H  0.72899621  0.02328966  0.57801886    -0.00100
H1948       H  0.66168384  0.93292713  0.53381984     0.14500
H1949       H  0.64020439  0.04972666  0.60624759     0.14200
O1950       O  0.88406509  0.32813271  0.84633143    -0.58300
C1951       C  0.83544206  0.27913176  0.79827951     0.74400
O1952       O  0.86322782  0.13938650  0.85762217    -0.59400
C1953       C  0.90925581  0.31644478  0.85314291     0.74300
C1954       C  0.82353745  0.28301188  0.90655300     0.76700
Cd1955     Cd  0.86466196  0.23958469  0.85397524     1.37500
O1956       O  0.86191822  0.28369270  0.79521138    -0.58300
O1957       O  0.81829113  0.27392985  0.87277035    -0.57100
C1958       C  0.86532131  0.13252553  0.82238275     0.76700
O1959       O  0.84696462  0.26518853  0.91875593    -0.59400
O1960       O  0.82485215  0.24953806  0.82290062    -0.57900
O1961       O  0.91416871  0.26891355  0.86255389    -0.57900
O1962       O  0.87102029  0.17313488  0.80360812    -0.57100
C1963       C  0.83948816  0.99255728  0.79732447     0.86000
C1964       C  0.84986910  0.03790161  0.82225244    -0.54200
C1965       C  0.85930633  0.08122017  0.80322847     0.09000
C1966       C  0.85803480  0.07456975  0.75976083     0.19900
C1967       C  0.81745752  0.01939364  0.77150686    -0.54900
C1968       C  0.82673250  0.06153860  0.75131015     0.09100
C1969       C  0.86427825  0.98057081  0.77116486    -0.54500
C1970       C  0.87485457  0.02303499  0.75127633     0.09600
H1971       H  0.84833453  0.03681234  0.85254730     0.14200
H1972       H  0.86594440  0.10931864  0.74417413    -0.00100
H1973       H  0.79536348  0.00947989  0.77108360     0.14500
H1974       H  0.87299648  0.94140109  0.77087546     0.14200
C1975       C  0.76104609  0.11071187  0.69617826     0.86000
C1976       C  0.75741715  0.14907875  0.72897000    -0.54200
C1977       C  0.78044590  0.17659208  0.73799011     0.09000
C1978       C  0.80769599  0.15351385  0.72109257     0.19900
C1979       C  0.77844908  0.14087543  0.66609729    -0.54900
C1980       C  0.80336316  0.16230925  0.67930326     0.09100
C1981       C  0.78233254  0.07071511  0.71214564    -0.54500
C1982       C  0.80649557  0.09280107  0.72700813     0.09600
H1983       H  0.73701266  0.16085565  0.73998665     0.14200
H1984       H  0.82698723  0.17212116  0.73265482    -0.00100
H1985       H  0.77158685  0.14503456  0.63731056     0.14500
H1986       H  0.77790012  0.02889075  0.71328101     0.14200
C1987       C  0.73044549  0.09072020  0.68481491     0.86000
C1988       C  0.72526012  0.06382433  0.64683393    -0.54200
C1989       C  0.69714767  0.05050622  0.63989036     0.09000
C1990       C  0.67802722  0.06033179  0.67406536     0.19900
C1991       C  0.70884742  0.13576578  0.68371832    -0.54900
C1992       C  0.68172631  0.12058979  0.67916323     0.09100
C1993       C  0.71917741  0.05217336  0.71393185    -0.54500
C1994       C  0.69283574  0.03244855  0.70804229     0.09600
H1995       H  0.74202731  0.06244885  0.62644825     0.14200
H1996       H  0.65585978  0.04782107  0.66980849    -0.00100
H1997       H  0.71474735  0.17703805  0.68495271     0.14500
H1998       H  0.73185655  0.04255378  0.73797558     0.14200
O1999       O  0.77617517  0.60059340  0.73901033    -0.58300
C2000       C  0.70448329  0.66771496  0.75127344     0.74400
O2001       O  0.72892133  0.57066152  0.83045294    -0.59400
C2002       C  0.79788683  0.59099429  0.75822132     0.74300
C2003       C  0.74670272  0.74344713  0.79061331     0.76700
Cd2004     Cd  0.74898702  0.63432493  0.78726737     1.37500
O2005       O  0.72652164  0.65161149  0.73452867    -0.58300
O2006       O  0.75762375  0.72109637  0.76252700    -0.57100
C2007       C  0.71657592  0.54796182  0.80304731     0.76700
O2008       O  0.74283693  0.71586784  0.82007273    -0.59400
O2009       O  0.70120194  0.66039034  0.78609514    -0.57900
O2010       O  0.79816783  0.60542716  0.79239154    -0.57900
O2011       O  0.72194128  0.56275488  0.77018232    -0.57100
C2012       C  0.86686033  0.95389183  0.98192332     0.86000
C2013       C  0.85122821  0.00729997  0.98348965    -0.54200
C2014       C  0.82436877  0.00535881  0.97045499     0.09000
C2015       C  0.81470092  0.95210232  0.95795203     0.19900
C2016       C  0.84751555  0.91624383  0.50347167    -0.54900
C2017       C  0.82066496  0.91528919  0.99083383     0.09100
C2018       C  0.86327030  0.93708246  0.93969075    -0.54500
C2019       C  0.83527639  0.93741083  0.92716966     0.09600
H2020       H  0.85949102  0.04379805  0.49437619     0.14200
H2021       H  0.79218556  0.95338274  0.95019782    -0.00100
H2022       H  0.85425517  0.89312567  0.52738520     0.14500
H2023       H  0.88097179  0.92710647  0.92187750     0.14200
O2024       O  0.65908074  0.69292791  0.73322334    -0.58300
C2025       C  0.61190291  0.66020135  0.67503363     0.74400
O2026       O  0.65809888  0.83710895  0.67055453    -0.59400
C2027       C  0.68555485  0.69775173  0.73036161     0.74300
C2028       C  0.69766494  0.69341222  0.62191942     0.76700
Cd2029     Cd  0.65650592  0.73695952  0.67438004     1.37500
O2030       O  0.63709305  0.64842923  0.68177381    -0.58300
O2031       O  0.70275065  0.70181526  0.65583243    -0.57100
C2032       C  0.65583891  0.84409202  0.70576309     0.76700
O2033       O  0.67439545  0.71181940  0.60962443    -0.59400
O2034       O  0.60700231  0.70777713  0.66572826    -0.57900
O2035       O  0.69617027  0.72752729  0.70586722    -0.57900
O2036       O  0.64995721  0.80358513  0.72455285    -0.57100
C2037       C  0.68170397  0.98406091  0.73078580     0.86000
C2038       C  0.70374144  0.95720655  0.75658422    -0.54200
C2039       C  0.69446804  0.91506623  0.77678303     0.09000
C2040       C  0.66315903  0.90205494  0.76835705     0.19900
C2041       C  0.67131197  0.93871923  0.70585798    -0.54900
C2042       C  0.66187156  0.89540625  0.72489076     0.09100
C2043       C  0.65692392  0.99605253  0.75695934    -0.54500
C2044       C  0.64635027  0.95359740  0.77685535     0.09600
H2045       H  0.72583924  0.96709728  0.75699279     0.14200
H2046       H  0.65525248  0.86730934  0.78395017    -0.00100
H2047       H  0.67283742  0.93980817  0.67556227     0.14500
H2048       H  0.64820819  0.03522319  0.75725292     0.14200
C2049       C  0.76014546  0.86592724  0.83195555     0.86000
C2050       C  0.73885211  0.90590639  0.81598025    -0.54200
C2051       C  0.71471218  0.88379930  0.80106871     0.09000
C2052       C  0.71354274  0.82307769  0.80691936     0.19900
C2053       C  0.74272854  0.83566602  0.86197832    -0.54900
C2054       C  0.71783493  0.81420672  0.84870849     0.09100
C2055       C  0.76383044  0.82761174  0.79914338    -0.54500
C2056       C  0.74082580  0.80008626  0.79004061     0.09600
H2057       H  0.74326483  0.94774005  0.81487492     0.14200
H2058       H  0.69427302  0.80445365  0.79530640    -0.00100
H2059       H  0.74956513  0.83147604  0.89077437     0.14500
H2060       H  0.78425482  0.81586922  0.78817068     0.14200
C2061       C  0.79073111  0.88597216  0.84336098     0.86000
C2062       C  0.80201188  0.92446168  0.81420896    -0.54200
C2063       C  0.82835122  0.94419595  0.82009192     0.09000
C2064       C  0.84314298  0.91639978  0.85411436     0.19900
C2065       C  0.81233214  0.84093705  0.84452590    -0.54900
C2066       C  0.83944922  0.85613783  0.84908309     0.09100
C2067       C  0.79590010  0.91295811  0.88132141    -0.54500
C2068       C  0.82401394  0.92628713  0.88827104     0.09600
H2069       H  0.78934019  0.93404219  0.79014843     0.14200
H2070       H  0.86530863  0.92892506  0.85836665    -0.00100
H2071       H  0.80643648  0.79966194  0.84331034     0.14500
H2072       H  0.77912709  0.91436555  0.90169916     0.14200
O2073       O  0.54440597  0.15175394  0.73438258    -0.58300
C2074       C  0.97328807  0.09101258  0.75824834     0.74400
O2075       O  0.54228767  0.07062017  0.83050510    -0.59400
C2076       C  0.56655172  0.16764478  0.75097706     0.74300
C2077       C  0.52457620  0.24346360  0.79078568     0.76700
Cd2078     Cd  0.52219335  0.13432413  0.78732793     1.37500
O2079       O  0.99501563  0.10060002  0.73907039    -0.58300
O2080       O  0.51344082  0.22117454  0.76282463    -0.57100
C2081       C  0.55465224  0.04796698  0.80309533     0.76700
O2082       O  0.52864365  0.21581926  0.82016144    -0.59400
O2083       O  0.97298817  0.10543066  0.79242307    -0.57900
O2084       O  0.56997878  0.16015032  0.78575151    -0.57900
O2085       O  0.54928922  0.06279881  0.77024125    -0.57100
C2086       C  0.90432903  0.45384496  0.98198139     0.86000
C2087       C  0.92369836  0.41623880  0.50352530    -0.54200
C2088       C  0.95054114  0.41530304  0.99085546     0.09000
C2089       C  0.95647406  0.45210082  0.95795939     0.19900
C2090       C  0.91994614  0.50727803  0.98350853    -0.54900
C2091       C  0.94680009  0.50535878  0.97044573     0.09100
C2092       C  0.90789881  0.43700131  0.93975404    -0.54500
C2093       C  0.93588500  0.43734937  0.92720904     0.09600
H2094       H  0.91697769  0.39311859  0.52744687     0.14200
H2095       H  0.97898532  0.45340417  0.95018681    -0.00100
H2096       H  0.91167839  0.54377323  0.49439244     0.14500
H2097       H  0.89019244  0.42697796  0.92196238     0.14200
O2098       O  0.63408165  0.14856721  0.68187059    -0.58300
C2099       C  0.58548023  0.19757922  0.72999399     0.74400
O2100       O  0.61323864  0.33731587  0.67059962    -0.59400
C2101       C  0.65927284  0.16026256  0.67506791     0.74300
C2102       C  0.57355036  0.19368456  0.62169530     0.76700
Cd2103     Cd  0.61467841  0.23711659  0.67426633     1.37500
O2104       O  0.61195712  0.19301164  0.73304375    -0.58300
O2105       O  0.56831670  0.20270997  0.65548931    -0.57100
C2106       C  0.61532637  0.34418656  0.70583870     0.76700
O2107       O  0.59696517  0.21155685  0.60948580    -0.59400
O2108       O  0.57488440  0.22717466  0.70537889    -0.57900
O2109       O  0.66418690  0.20780247  0.66567912    -0.57900
O2110       O  0.62102671  0.30358430  0.72461990    -0.57100
C2111       C  0.58948109  0.48415302  0.73088687     0.86000
C2112       C  0.59986615  0.43880899  0.70596034    -0.54200
C2113       C  0.60930376  0.39549304  0.72498700     0.09000
C2114       C  0.60802691  0.40214425  0.76845382     0.19900
C2115       C  0.56744908  0.45731338  0.75670032    -0.54900
C2116       C  0.57672295  0.41517010  0.77689746     0.09100
C2117       C  0.61426935  0.49614341  0.75705046    -0.54500
C2118       C  0.62484545  0.45368061  0.77694056     0.09600
H2119       H  0.59833459  0.43989659  0.67566527     0.14200
H2120       H  0.61593516  0.36739746  0.78404216    -0.00100
H2121       H  0.54535448  0.46722176  0.75711903     0.14500
H2122       H  0.62298775  0.53531410  0.75734018     0.14200
C2123       C  0.51103283  0.36598094  0.83201909     0.86000
C2124       C  0.50740192  0.32762166  0.79922244    -0.54200
C2125       C  0.53043064  0.30011345  0.79019458     0.09000
C2126       C  0.55768174  0.32318792  0.80709428     0.19900
C2127       C  0.52843695  0.33580754  0.86209373    -0.54900
C2128       C  0.55335118  0.31438022  0.84888254     0.09100
C2129       C  0.53232014  0.40598216  0.81605571    -0.54500
C2130       C  0.55648266  0.38390083  0.80118989     0.09600
H2131       H  0.98699730  0.31584387  0.78820800     0.14200
H2132       H  0.57697240  0.30458484  0.79552793    -0.00100
H2133       H  0.52157632  0.33164075  0.89088124     0.14500
H2134       H  0.52788976  0.44780767  0.81492744     0.14200
C2135       C  0.98043270  0.38597502  0.84338723     0.86000
C2136       C  0.97524795  0.41286075  0.88137322    -0.54200
C2137       C  0.94713637  0.42618574  0.88831749     0.09000
C2138       C  0.92801634  0.41637257  0.85414056     0.19900
C2139       C  0.95883046  0.34093452  0.84447611    -0.54900
C2140       C  0.93171047  0.35611510  0.84903569     0.09100
C2141       C  0.96916827  0.42453356  0.81427640    -0.54500
C2142       C  0.94282813  0.44426144  0.82016771     0.09600
H2143       H  0.99201428  0.41422691  0.90176067     0.14200
H2144       H  0.90584972  0.42888689  0.85839883    -0.00100
H2145       H  0.96472705  0.29966179  0.84323849     0.14500
H2146       H  0.98184852  0.43415770  0.79023431     0.14200
O2147       O  0.97656321  0.82508737  0.79371642    -0.58300
C2148       C  0.54789652  0.88570771  0.77000129     0.74400
O2149       O  0.99279744  0.76085928  0.70812748    -0.59400
C2150       C  0.95451084  0.80900902  0.77699186     0.74300
C2151       C  0.96658488  0.92875796  0.72517498     0.76700
Cd2152     Cd  0.99899360  0.84238813  0.74095141     1.37500
O2153       O  0.52618735  0.87609486  0.78921411    -0.58300
O2154       O  0.97194380  0.91395383  0.75803878    -0.57100
C2155       C  0.49668642  0.73326313  0.73757272     0.76700
O2156       O  0.97893518  0.90606708  0.69777008    -0.59400
O2157       O  0.54817411  0.87129208  0.73582725    -0.57900
O2158       O  0.95120849  0.81635712  0.74217672    -0.57900
O2159       O  0.50763689  0.75559646  0.76564576    -0.57100
C2160       C  0.61684969  0.52282263  0.54628990     0.86000
C2161       C  0.60121441  0.46941736  0.54471582    -0.54200
C2162       C  0.57435493  0.47136013  0.55774873     0.09000
C2163       C  0.56469024  0.52461385  0.57025827     0.19900
C2164       C  0.59750811  0.56047914  0.52474475    -0.54900
C2165       C  0.57065717  0.56143432  0.53738204     0.09100
C2166       C  0.61326007  0.53962180  0.58852365    -0.54500
C2167       C  0.58526621  0.53929429  0.60104294     0.09600
H2168       H  0.60947526  0.43291891  0.53382536     0.14200
H2169       H  0.54217473  0.52333320  0.57800953    -0.00100
H2170       H  0.60424953  0.58360049  0.00083393     0.14500
H2171       H  0.63096211  0.54959179  0.60633912     0.14200
O2172       O  0.88710816  0.82828144  0.84646516    -0.58300
C2173       C  0.93558396  0.77898399  0.79791383     0.74400
O2174       O  0.92438338  0.76492288  0.91862702    -0.59400
C2175       C  0.86191489  0.81650684  0.85318562     0.74300
C2176       C  0.90584705  0.63262271  0.82245447     0.76700
Cd2177     Cd  0.90651658  0.73974306  0.85386504     1.37500
O2178       O  0.90910955  0.78377367  0.79502879    -0.58300
O2179       O  0.89998922  0.67314292  0.80366689    -0.57100
C2180       C  0.94767055  0.78326833  0.90634239     0.76700
O2181       O  0.90808923  0.63959048  0.85766678    -0.59400
O2182       O  0.94619780  0.74923439  0.82242440    -0.57900
O2183       O  0.85701108  0.76892966  0.86248480    -0.57900
O2184       O  0.95277285  0.77480046  0.87244180    -0.57100
C2185       C  0.93169817  0.49265013  0.79742561     0.86000
C2186       C  0.95373281  0.51950000  0.77161888    -0.54200
C2187       C  0.94445800  0.56164010  0.75142050     0.09000
C2188       C  0.91315139  0.57465522  0.75985645     0.19900
C2189       C  0.92131246  0.53799433  0.82235443    -0.54900
C2190       C  0.91187205  0.58130772  0.80332334     0.09100
C2191       C  0.90691434  0.48065861  0.77126052    -0.54500
C2192       C  0.89634001  0.52311174  0.75136528     0.09600
H2193       H  0.97582981  0.50960539  0.77120395     0.14200
H2194       H  0.90524308  0.60940011  0.74426454    -0.00100
H2195       H  0.92284349  0.53690735  0.85265019     0.14500
H2196       H  0.89819752  0.44148641  0.77097071     0.14200
C2197       C  0.51013340  0.61077132  0.69624198     0.86000
C2198       C  0.98883980  0.57079423  0.71221875    -0.54200
C2199       C  0.96469874  0.59290242  0.72712507     0.09000
C2200       C  0.96352790  0.65362325  0.72126305     0.19900
C2201       C  0.99271945  0.64102075  0.66621075    -0.54900
C2202       C  0.96782478  0.66248245  0.67947314     0.09100
C2203       C  0.51381418  0.64909670  0.72904904    -0.54500
C2204       C  0.99080841  0.67662336  0.73814218     0.09600
H2205       H  0.99325396  0.52896207  0.71333044     0.14200
H2206       H  0.94425695  0.67224813  0.73287040    -0.00100
H2207       H  0.99955888  0.64520359  0.63741616     0.14500
H2208       H  0.53423627  0.66084183  0.74002508     0.14200
C2209       C  0.54072007  0.59072790  0.68484537     0.86000
C2210       C  0.55200120  0.55224347  0.71400101    -0.54200
C2211       C  0.57834183  0.53251242  0.70811952     0.09000
C2212       C  0.59313271  0.56030743  0.67409641     0.19900
C2213       C  0.56231967  0.63576650  0.68367754    -0.54900
C2214       C  0.58943694  0.62056900  0.67912465     0.09100
C2215       C  0.54588988  0.56373688  0.64688873    -0.54500
C2216       C  0.57400396  0.55041259  0.63994078     0.09600
H2217       H  0.53932865  0.54266292  0.73806120     0.14200
H2218       H  0.61529863  0.54778539  0.66984535    -0.00100
H2219       H  0.55642353  0.67704174  0.68489142     0.14500
H2220       H  0.52911704  0.56232472  0.62651260     0.14200
O2221       O  0.52618364  0.60060246  0.53915732    -0.58300
C2222       C  0.95464133  0.66763332  0.52724629     0.74400
O2223       O  0.99255350  0.71582464  0.95807009    -0.59400
C2224       C  0.54790995  0.59101737  0.51997699     0.74300
C2225       C  0.96654802  0.54796989  0.97512624     0.76700
Cd2226     Cd  0.99900350  0.63432661  0.99090167     1.37500
O2227       O  0.97678691  0.65174784  0.54384425    -0.58300
O2228       O  0.97190993  0.56279286  0.50798208    -0.57100
C2229       C  0.49661775  0.74346520  0.98744701     0.76700
O2230       O  0.97891367  0.57063064  0.94771887    -0.59400
O2231       O  0.95121552  0.66013349  0.49247264    -0.57900
O2232       O  0.54820835  0.60543937  0.98580249    -0.57900
O2233       O  0.50775042  0.72117366  0.01540985    -0.57100
C2234       C  0.61686915  0.95383956  0.79623583     0.86000
C2235       C  0.59749862  0.91623314  0.77469564    -0.54200
C2236       C  0.57065630  0.91529746  0.78736637     0.09000
C2237       C  0.56472445  0.95209507  0.82026056     0.19900
C2238       C  0.60125246  0.00727245  0.79470621    -0.54900
C2239       C  0.57439905  0.00535324  0.80777111     0.09100
C2240       C  0.61329992  0.93699675  0.83846495    -0.54500
C2241       C  0.58531382  0.93734465  0.85101128     0.09600
H2242       H  0.60421816  0.89311364  0.75077465     0.14200
H2243       H  0.54221371  0.95339795  0.82803332    -0.00100
H2244       H  0.60952045  0.04376864  0.78382057     0.14500
H2245       H  0.63100702  0.92697471  0.85625715     0.14200
O2246       O  0.90923607  0.69300224  0.54517614    -0.58300
C2247       C  0.86192553  0.66025708  0.60314696     0.74400
O2248       O  0.92423558  0.71155667  0.66872946    -0.59400
C2249       C  0.93571301  0.69757289  0.54822353     0.74300
C2250       C  0.90586973  0.84418458  0.57238136     0.76700
Cd2251     Cd  0.90651903  0.73711202  0.60395063     1.37500
O2252       O  0.88711788  0.64856111  0.59635521    -0.58300
O2253       O  0.90016990  0.80358418  0.55359983    -0.57100
C2254       C  0.94764883  0.69368235  0.65651825     0.76700
O2255       O  0.90795830  0.83731014  0.60762030    -0.59400
O2256       O  0.85701026  0.70779725  0.61253039    -0.57900
O2257       O  0.94630956  0.72717647  0.57283200    -0.57900
O2258       O  0.95288045  0.70270379  0.62272266    -0.57100
C2259       C  0.93171560  0.98415298  0.54733160     0.86000
C2260       C  0.92132862  0.93880828  0.57225884    -0.54200
C2261       C  0.91189128  0.89549322  0.55323312     0.09000
C2262       C  0.91316987  0.90214535  0.50976608     0.19900
C2263       C  0.95374815  0.95731421  0.52152037    -0.54900
C2264       C  0.94447427  0.91517162  0.50132434     0.09100
C2265       C  0.90692801  0.99614363  0.52116519    -0.54500
C2266       C  0.89635257  0.95368090  0.50127504     0.09600
H2267       H  0.92285957  0.93989436  0.60255521     0.14200
H2268       H  0.90526186  0.86739906  0.49417890    -0.00100
H2269       H  0.97584381  0.96722268  0.52110258     0.14500
H2270       H  0.89820990  0.03531194  0.52087376     0.14200
C2271       C  0.51016406  0.86597994  0.94620770     0.86000
C2272       C  0.51379371  0.82762199  0.97900709    -0.54200
C2273       C  0.99076417  0.80011462  0.98803676     0.09000
C2274       C  0.96351376  0.82318854  0.97113478     0.19900
C2275       C  0.99275934  0.83580568  0.91613504    -0.54900
C2276       C  0.96784446  0.81437873  0.92934721     0.09100
C2277       C  0.98887752  0.90598213  0.96216811    -0.54500
C2278       C  0.96471431  0.88390163  0.97703490     0.09600
H2279       H  0.53419882  0.81584346  0.99002240     0.14200
H2280       H  0.94422278  0.80458588  0.98270220    -0.00100
H2281       H  0.99962070  0.83163687  0.88734811     0.14500
H2282       H  0.99330896  0.94780756  0.96329411     0.14200
C2283       C  0.54076468  0.88597360  0.93483812     0.86000
C2284       C  0.54595003  0.91285810  0.89684985    -0.54200
C2285       C  0.57406187  0.92618363  0.88990428     0.09000
C2286       C  0.59318148  0.91637277  0.92408213     0.19900
C2287       C  0.56236643  0.84093377  0.93375265    -0.54900
C2288       C  0.58948659  0.85611462  0.92918983     0.09100
C2289       C  0.55202954  0.92453297  0.96394603    -0.54500
C2290       C  0.57836948  0.94426252  0.95805343     0.09600
H2291       H  0.52918354  0.91422271  0.87646214     0.14200
H2292       H  0.61534815  0.92888794  0.91982286    -0.00100
H2293       H  0.55646877  0.79966031  0.93499174     0.14500
H2294       H  0.53934905  0.93415666  0.98798891     0.14200
O2295       O  0.99500766  0.37609415  0.98900565    -0.58300
C2296       C  0.56669572  0.30902802  0.00123866     0.74400
O2297       O  0.54226403  0.40605740  0.58045245    -0.59400
C2298       C  0.97330023  0.38570984  0.50822026     0.74300
C2299       C  0.52451322  0.23326184  0.54063749     0.76700
Cd2300     Cd  0.52220496  0.34238968  0.53726723     1.37500
O2301       O  0.54464844  0.32511943  0.98450843    -0.58300
O2302       O  0.51357352  0.25560119  0.51255842    -0.57100
C2303       C  0.55461045  0.42875966  0.55304762     0.76700
O2304       O  0.52839095  0.26085166  0.57008709    -0.59400
O2305       O  0.56999124  0.31635958  0.53605643    -0.57900
O2306       O  0.97302412  0.37129396  0.54239503    -0.57900
O2307       O  0.54924734  0.41396818  0.52018280    -0.57100
C2308       C  0.90434760  0.02282399  0.73193063     0.86000
C2309       C  0.91998158  0.96941754  0.73350690    -0.54200
C2310       C  0.94684166  0.97136071  0.72047496     0.09000
C2311       C  0.95650763  0.02461515  0.70796448     0.19900
C2312       C  0.92368939  0.06047813  0.75347585    -0.54900
C2313       C  0.95054071  0.06143324  0.74084037     0.09100
C2314       C  0.90793834  0.03962444  0.68969664    -0.54500
C2315       C  0.93593230  0.03929593  0.67717810     0.09600
H2316       H  0.91171994  0.93292013  0.74439615     0.14200
H2317       H  0.97902337  0.02333552  0.70021399    -0.00100
H2318       H  0.91694768  0.08359804  0.77738666     0.14500
H2319       H  0.89023718  0.04959336  0.67188036     0.14200
O2320       O  0.61209578  0.28378471  0.98320251    -0.58300
C2321       C  0.65928205  0.31651992  0.92503387     0.74400
O2322       O  0.61311645  0.13960273  0.92055732    -0.59400
C2323       C  0.58562098  0.27899854  0.98031958     0.74300
C2324       C  0.57352566  0.28327406  0.87188941     0.76700
Cd2325     Cd  0.61468152  0.23975501  0.92436581     1.37500
O2326       O  0.63408925  0.32829496  0.93175452    -0.58300
O2327       O  0.56842434  0.27480680  0.90579088    -0.57100
C2328       C  0.61535148  0.13262954  0.95577016     0.76700
O2329       O  0.59681284  0.26493199  0.85960509    -0.59400
O2330       O  0.66418547  0.26894189  0.91574041    -0.57900
O2331       O  0.57500449  0.24924820  0.95581263    -0.57900
O2332       O  0.62120173  0.17314829  0.97456159    -0.57100
C2333       C  0.58949950  0.99265082  0.98079468     0.86000
C2334       C  0.56746514  0.01949781  0.00660205    -0.54200
C2335       C  0.57674052  0.06163682  0.52679993     0.09000
C2336       C  0.60804736  0.07465189  0.51836434     0.19900
C2337       C  0.59988571  0.03799891  0.95586589    -0.54900
C2338       C  0.60932665  0.08131002  0.97489799     0.09100
C2339       C  0.61428332  0.98065682  0.00695911    -0.51300
C2340       C  0.62485817  0.02310781  0.52685418     0.09600
H2341       H  0.54536773  0.00960312  0.50701683     0.14200
H2342       H  0.61595654  0.10939475  0.53395681    -0.00100
H2343       H  0.59835463  0.03691615  0.92557054     0.14500
H2344       H  0.62300082  0.94148618  0.00724704     0.14200
C2345       C  0.51106546  0.11076980  0.58197429     0.86000
C2346       C  0.53235855  0.07079281  0.56600038    -0.54200
C2347       C  0.55650007  0.09290063  0.55109293     0.09000
C2348       C  0.55767172  0.15362239  0.55695119     0.19900
C2349       C  0.52847959  0.14102036  0.61200382    -0.54900
C2350       C  0.55337468  0.16248280  0.59874085     0.09100
C2351       C  0.50738526  0.14909455  0.54916479    -0.54500
C2352       C  0.53039142  0.17662199  0.54006977     0.09600
H2353       H  0.52794342  0.02896000  0.56489085     0.14200
H2354       H  0.57694344  0.17224761  0.54534313    -0.00100
H2355       H  0.52163953  0.14520388  0.64079842     0.14500
H2356       H  0.98696270  0.16083897  0.53818766     0.14200
C2357       C  0.98047851  0.09072558  0.59337176     0.86000
C2358       C  0.96919672  0.05224221  0.56421747    -0.54200
C2359       C  0.94285560  0.03251078  0.57009904     0.09000
C2360       C  0.92806549  0.06030405  0.60412182     0.19900
C2361       C  0.95887963  0.13576373  0.59453772    -0.54900
C2362       C  0.93176204  0.12056555  0.59909059     0.09100
C2363       C  0.97530845  0.06373357  0.63132941    -0.54500
C2364       C  0.94719428  0.05040952  0.63827850     0.09600
H2365       H  0.98186931  0.04266292  0.54015771     0.14200
H2366       H  0.90589903  0.04778161  0.60837336    -0.00100
H2367       H  0.96477635  0.17703886  0.59332147     0.14500
H2368       H  0.99208150  0.06232154  0.65170592     0.14200
loop_ 
_geom_bond_atom_site_label_1 
_geom_bond_atom_site_label_2 
_geom_bond_distance 
_geom_bond_site_symmetry_2 
_ccdc_geom_bond_type 
O1            C4   1.273       .  A
O1         Cd598   2.211   1_554  S
C2            O7   1.262       .  A
C2          O603   1.276   1_554  A
C2          C164   1.455       .  S
O3            C9   1.279       .  A
O3           Cd6   2.400       .  S
C4           O12   1.269   1_554  A
C4           C27   1.396       .  S
C5           O10   1.280       .  A
C5          O600   1.260       .  A
C5          C238   1.442       .  S
Cd6          O13   2.412       .  S
Cd6          O11   2.454       .  S
Cd6          O10   2.432       .  S
Cd6         O593   2.211       .  S
Cd6         O604   2.363       .  S
Cd6         O599   2.319       .  S
Cd6         O600   2.309       .  S
O7         Cd598   2.319   1_554  S
O8          C597   1.260   1_554  A
O8         Cd598   2.309   1_554  S
C9           O13   1.265       .  A
C9           C58   1.467       .  S
O11         C594   1.276       .  A
O12        Cd598   2.363       .  S
C14          C15   1.548       .  S
C14          C20   1.579       .  S
C14          C18   1.534       .  S
C14         C342   1.561       .  S
C15          H22   1.080       .  S
C15          C16   1.358       .  D
C16         C231   1.442       .  S
C16          C17   1.498       .  S
C17          C21   1.518       .  S
C17          C19   1.529       .  S
C17          H23   1.104       .  S
C18          H24   1.086       .  S
C18          C19   1.352       .  D
C19         C150   1.456       .  S
C20          H25   1.084       .  S
C20          C21   1.402       .  D
C21          C70   1.517       .  S
O26          C29   1.256       .  A
O26         Cd31   2.447       .  S
C27          O36   1.263       .  A
C27          O32   1.266       .  A
O28          C34   1.277       .  A
O28         Cd31   2.548       .  S
C29          O37   1.276       .  A
C29         C586   1.474       .  S
C30          O35   1.276       .  A
C30          O33   1.261       .  A
C30          C44   1.501       .  S
Cd31         O38   2.460       .  S
Cd31         O37   2.483       .  S
Cd31         O36   2.207       .  S
Cd31         O32   2.387       .  S
Cd31         O35   2.551       .  S
Cd31         O33   2.487       .  S
C34          O38   1.255       .  A
C34         C204   1.490       .  S
C39          C40   1.553       .  S
C39          C45   1.534       .  S
C39          C43   1.539       .  S
C39         C144   1.567       .  S
C40          H47   1.078       .  S
C40          C41   1.365       .  D
C41          C42   1.552       .  S
C41         C645   1.520   1_554  S
C42          C46   1.564       .  S
C42          C44   1.565       .  S
C42          H48   1.110   1_554  S
C43          H49   1.086       .  S
C43          C44   1.370       .  D
C45          H50   1.079       .  S
C45          C46   1.387       .  D
C46         C902   1.561   1_554  S
C51          C52   1.543       .  S
C51          C57   1.535       .  S
C51          C55   1.558       .  S
C51          C63   1.591       .  S
C52          H59   1.085       .  S
C52          C53   1.383       .  D
C53          C54   1.559       .  S
C53         C633   1.520       .  S
C54          C58   1.543       .  S
C54          C56   1.525       .  S
C54          H60   1.110       .  S
C55          H61   1.085       .  S
C55          C56   1.385       .  D
C56         C178   1.490       .  S
C57          H62   1.087       .  S
C57          C58   1.337       .  D
C63          C64   1.527       .  S
C63          C69   1.541       .  S
C63          C67   1.537       .  S
C64          H71   1.078       .  S
C64          C65   1.363       .  D
C65          C66   1.573       .  S
C65         C113   1.567       .  S
C66          C70   1.543       .  S
C66          C68   1.553       .  S
C66          H72   1.109       .  S
C67          H73   1.087       .  S
C67          C68   1.353       .  D
C68         C545   1.474       .  S
C69          H74   1.080       .  S
C69          C70   1.399       .  D
O75         C670   1.262       .  A
O75        Cd672   2.319       .  S
C76          O81   1.273       .  A
C76         O677   1.269       .  A
C76         C101   1.396       .  S
O77          C83   1.279       .  A
O77         Cd80   2.402       .  S
C78          O86   1.276       .  A
C78         O667   1.262   1_554  A
C78         C833   1.456   1_554  S
C79          O84   1.280       .  A
C79          O82   1.260       .  A
C79         C167   1.442       .  S
Cd80         O87   2.412       .  S
Cd80         O86   2.454       .  S
Cd80         O85   2.361       .  S
Cd80         O84   2.433       .  S
Cd80         O82   2.310       .  S
Cd80        O667   2.319   1_554  S
Cd80        O673   2.212   1_554  S
O81        Cd672   2.212       .  S
C83          O87   1.265       .  A
C83         C127   1.467       .  S
O85         C668   1.269       .  A
C88          C89   1.534       .  S
C88          C94   1.579       .  S
C88          C92   1.549       .  S
C88         C416   1.561       .  S
C89          H96   1.086       .  S
C89          C90   1.352       .  D
C90         C226   1.455       .  S
C90          C91   1.529       .  S
C91          C95   1.518       .  S
C91          C93   1.498       .  S
C91          H97   1.104       .  S
C92          H98   1.080       .  S
C92          C93   1.358       .  D
C93         C157   1.442       .  S
C94          H99   1.084       .  S
C94          C95   1.402       .  D
C95         C139   1.517       .  S
O100        C103   1.256       .  A
O100       Cd105   2.448       .  S
C101        O110   1.263       .  A
C101        O106   1.266       .  A
O102        C108   1.276       .  A
O102       Cd105   2.552       .  S
C103        O111   1.276       .  A
C103        C512   1.475       .  S
C104        O109   1.277       .  A
C104        O107   1.255       .  A
C104        C278   1.490       .  S
Cd105       O112   2.488       .  S
Cd105       O111   2.484       .  S
Cd105       O110   2.206       .  S
Cd105       O106   2.386       .  S
Cd105       O109   2.549       .  S
Cd105       O107   2.461       .  S
C108        O112   1.261       .  A
C108        C115   1.501       .  S
C113        C114   1.538       .  S
C113        C119   1.534       .  S
C113        C117   1.553       .  S
C114        H121   1.086       .  S
C114        C115   1.370       .  D
C115        C708   1.565       .  S
C116        C120   1.564       .  S
C116        C118   1.552       .  S
C116        C707   1.565   1_554  S
C116        H122   1.110       .  S
C117        H123   1.078       .  S
C117        C710   1.365       .  D
C118        C709   1.365       .  D
C118        C132   1.520       .  S
C119        H124   1.079       .  S
C119        C712   1.387       .  D
C120        C384   1.561       .  S
C120        C711   1.387       .  D
C125        C126   1.535       .  S
C125        C131   1.543       .  S
C125        C129   1.558       .  S
C125        C137   1.591       .  S
C126        H133   1.087       .  S
C126        C127   1.337       .  D
C127        C128   1.543       .  S
C128        C132   1.559       .  S
C128        C130   1.525       .  S
C128        H134   1.110       .  S
C129        H135   1.085       .  S
C129        C130   1.385       .  D
C130        C252   1.490       .  S
C131        H136   1.085       .  S
C131        C132   1.383       .  D
C137        C138   1.541       .  S
C137        C143   1.527       .  S
C137        C141   1.537       .  S
C138        H145   1.080       .  S
C138        C139   1.399       .  D
C139        C140   1.543       .  S
C140        C144   1.573       .  S
C140        C142   1.553       .  S
C140        H146   1.109       .  S
C141        H147   1.087       .  S
C141        C142   1.353       .  D
C142        C471   1.475       .  S
C143        H148   1.078       .  S
C143        C144   1.363       .  D
O149        C152   1.273       .  A
O149       Cd154   2.212       .  S
C150        O159   1.276       .  A
C150        O155   1.262       .  A
O151        C157   1.280       .  A
O151       Cd154   2.433       .  S
C152        O160   1.269       .  A
C152        C175   1.396       .  S
C153        O158   1.279       .  A
C153        O156   1.265       .  A
C153        C201   1.467       .  S
Cd154       O161   2.310       .  S
Cd154       O160   2.361       .  S
Cd154       O159   2.455       .  S
Cd154       O155   2.319       .  S
Cd154       O158   2.402       .  S
Cd154       O156   2.412       .  S
C157        O161   1.260       .  A
C162        C163   1.534       .  S
C162        C168   1.579       .  S
C162        C166   1.549   1_545  S
C162        C564   1.561       .  S
C163        H762   1.086       .  S
C163        C164   1.352       .  D
C164        C165   1.529       .  S
C165        C169   1.518       .  S
C165        C167   1.498   1_545  S
C165        H171   1.104       .  S
C166        H172   1.080       .  S
C166        C167   1.358       .  D
C168        H173   1.084       .  S
C168        C169   1.402       .  D
C169        C213   1.517       .  S
H170        C755   1.086       .  S
O174        C177   1.256       .  A
O174       Cd179   2.448       .  S
C175        O184   1.263       .  A
C175        O180   1.266       .  A
O176        C182   1.276       .  A
O176       Cd179   2.552       .  S
C177        O185   1.276       .  A
C177        C364   1.475       .  S
C178        O183   1.277       .  A
C178        O181   1.255       .  A
Cd179       O186   2.488       .  S
Cd179       O185   2.484       .  S
Cd179       O184   2.206       .  S
Cd179       O180   2.386       .  S
Cd179       O183   2.549       .  S
Cd179       O181   2.461       .  S
C182        O186   1.261       .  A
C182        C189   1.501       .  S
C187        C188   1.538   1_565  S
C187        C193   1.534       .  S
C187        C191   1.553   1_565  S
C187        C287   1.567       .  S
C188        H195   1.086       .  S
C188        C189   1.370       .  D
C189        C190   1.565       .  S
C190        C194   1.564       .  S
C190        C192   1.552       .  S
C190        H196   1.110       .  S
C191        H197   1.078       .  S
C191        C192   1.365       .  D
C192        C206   1.520       .  S
C193        H198   1.078       .  S
C193        C194   1.387   1_565  D
C194        C532   1.561       .  S
C199        C200   1.535       .  S
C199        C205   1.543       .  S
C199        C203   1.558       .  S
C199        C211   1.591       .  S
C200        H207   1.087       .  S
C200        C201   1.337       .  D
C201        C202   1.543       .  S
C202        C206   1.559       .  S
C202        C204   1.525       .  S
C202        H208   1.110       .  S
C203        H209   1.085       .  S
C203        C204   1.385       .  D
C205        H210   1.085       .  S
C205        C206   1.383       .  D
C211        C212   1.541       .  S
C211        C217   1.527       .  S
C211        C215   1.537       .  S
C212        H219   1.080       .  S
C212        C213   1.399       .  D
C213        C214   1.543       .  S
C214        C218   1.573       .  S
C214        C216   1.553       .  S
C214        H220   1.109       .  S
C215        H221   1.087       .  S
C215        C216   1.353       .  D
C216        C325   1.475       .  S
C217        H222   1.078       .  S
C217        C218   1.363       .  D
C218        C261   1.567   1_545  S
O223        C226   1.262       .  A
O223       Cd228   2.319       .  S
C224        O233   1.269       .  A
C224        O229   1.273       .  A
C224        C251   1.396       .  S
O225        C231   1.280       .  A
O225       Cd228   2.432       .  S
C226        O234   1.276       .  A
C227        O232   1.279       .  A
C227        O230   1.265       .  A
C227        C280   1.467       .  S
Cd228       O235   2.309       .  S
Cd228       O234   2.454       .  S
Cd228       O233   2.363       .  S
Cd228       O229   2.211       .  S
Cd228       O232   2.400       .  S
Cd228       O230   2.412       .  S
C231        O235   1.260       .  A
C236        C237   1.548   1_565  S
C236        C242   1.579       .  S
C236        C832   1.534       .  S
C236       C1082   1.561       .  S
C237        H836   1.080       .  S
C237        C238   1.358       .  D
C238        C239   1.498   1_545  S
C239        C243   1.518       .  S
C239        C241   1.529       .  S
C239        H245   1.104       .  S
C240        C828   1.534   1_554  S
C240        H246   1.086       .  S
C240        C833   1.352   1_554  D
C241        C670   1.456       .  S
C241        C832   1.352       .  D
C242        H247   1.084       .  S
C242        C243   1.402       .  D
C243        C292   1.517       .  S
H244        C829   1.080       .  S
O248        C251   1.266       .  A
O248       Cd253   2.387       .  S
C249        O258   1.276       .  A
C249        O254   1.256       .  A
C249        C438   1.474       .  S
O250        C256   1.276       .  A
O250       Cd253   2.551       .  S
C251        O259   1.263       .  A
C252        O257   1.277       .  A
C252        O255   1.255       .  A
Cd253       O260   2.487       .  S
Cd253       O259   2.206       .  S
Cd253       O258   2.483       .  S
Cd253       O254   2.447       .  S
Cd253       O257   2.548       .  S
Cd253       O255   2.461       .  S
C256        O260   1.261       .  A
C256        C266   1.501       .  S
C261        C262   1.553       .  S
C261        C267   1.534       .  S
C261        C265   1.539       .  S
C262        H269   1.078       .  S
C262        C263   1.365       .  D
C263        C264   1.552       .  S
C263        C275   1.520       .  S
C264        C268   1.564       .  S
C264        C266   1.565       .  S
C264        H270   1.110       .  S
C265        H271   1.086       .  S
C265        C266   1.370       .  D
C267        H272   1.079   1_565  S
C267        C268   1.387       .  D
C268        C458   1.561       .  S
C273        C274   1.543       .  S
C273        C279   1.535       .  S
C273        C277   1.558       .  S
C273        C285   1.591       .  S
C274        H281   1.085       .  S
C274        C275   1.383       .  D
C275        C276   1.559       .  S
C276        C280   1.543       .  S
C276        C278   1.525       .  S
C276        H282   1.110       .  S
C277        H283   1.085       .  S
C277        C278   1.385       .  D
C279        H284   1.087       .  S
C279        C280   1.337       .  D
C285        C286   1.527       .  S
C285        C291   1.541       .  S
C285        C289   1.537       .  S
C286        H293   1.078       .  S
C286        C287   1.363       .  D
C287        C288   1.573       .  S
C288        C292   1.543       .  S
C288        C290   1.553       .  S
C288        H294   1.109       .  S
C289        H295   1.087       .  S
C289        C290   1.353       .  D
C290        C399   1.474       .  S
C291        H296   1.080       .  S
C291        C292   1.399       .  D
O297        C300   1.273       .  A
O297       Cd302   2.212       .  S
C298        O307   1.276       .  A
C298        O303   1.262       .  A
C298        C537   1.456       .  S
O299        C305   1.280       .  A
O299       Cd302   2.433       .  S
C300        O308   1.269       .  A
C300        C323   1.396       .  S
C301        O306   1.279       .  A
C301        O304   1.265       .  A
C301        C349   1.467       .  S
Cd302       O309   2.310       .  S
Cd302       O308   2.361       .  S
Cd302       O306   2.401       .  S
Cd302       O304   2.412       .  S
Cd302      O1491   2.455   1_455  S
Cd302      O1487   2.319   1_455  S
O303      Cd1486   2.319       .  S
C305        O309   1.260       .  A
C305        C463   1.442       .  S
O307      Cd1486   2.455       .  S
C310        C316   1.579       .  S
C310        C314   1.549       .  S
C310        C638   1.561       .  S
C310        C903   1.534       .  S
C311        C902   1.534   1_554  S
C311        H318   1.086       .  S
C311        C904   1.352   1_554  D
C312       C1114   1.455       .  S
C312        C313   1.529       .  S
C312        C903   1.352       .  D
C313        C317   1.518       .  S
C313        C315   1.498       .  S
C313        H319   1.104       .  S
C314        H912   1.080       .  S
C314        C315   1.358       .  D
C315        C449   1.442       .  S
C316        H321   1.084       .  S
C316        C317   1.402       .  D
C317        C361   1.517       .  S
H320        C906   1.080       .  S
O322        C325   1.256       .  A
O322       Cd327   2.448       .  S
C323        O332   1.263       .  A
C323        O328   1.266       .  A
O324        C330   1.276       .  A
O324       Cd327   2.552       .  S
C325        O333   1.276       .  A
C326        O331   1.277       .  A
C326        O329   1.255       .  A
C326        C574   1.490       .  S
Cd327       O334   2.488       .  S
Cd327       O333   2.484       .  S
Cd327       O332   2.206       .  S
Cd327       O328   2.386       .  S
Cd327       O331   2.549       .  S
Cd327       O329   2.461       .  S
C330        O334   1.261       .  A
C330        C337   1.501       .  S
C335        C336   1.539       .  S
C335        C341   1.534       .  S
C335        C339   1.553       .  S
C335        C435   1.567       .  S
C336        H343   1.086       .  S
C336        C337   1.370       .  D
C337        C338   1.565       .  S
C338        C342   1.564       .  S
C338        C340   1.552       .  S
C338        H344   1.110       .  S
C339        H345   1.078       .  S
C339        C340   1.365       .  D
C340        C354   1.520       .  S
C341        H346   1.079       .  S
C341        C342   1.387       .  D
C347        C348   1.535       .  S
C347        C353   1.543       .  S
C347        C351   1.558       .  S
C347       C1543   1.591   1_455  S
C348       H1539   1.087   1_455  S
C348        C349   1.337       .  D
C349        C350   1.543       .  S
C350        C354   1.559       .  S
C350        C352   1.525       .  S
C350        H356   1.110       .  S
C351        H357   1.085       .  S
C351        C352   1.385       .  D
C352        C548   1.490       .  S
C353        H358   1.085       .  S
C353        C354   1.383       .  D
H355       C1532   1.087       .  S
C359        C360   1.541       .  S
C359        C365   1.527       .  S
C359        C363   1.537       .  S
C359       C1531   1.591       .  S
C360        H367   1.080       .  S
C360        C361   1.399       .  D
C361        C362   1.543       .  S
C362        C366   1.573       .  S
C362        C364   1.553       .  S
C362        H368   1.109       .  S
C363        H369   1.087       .  S
C363        C364   1.353       .  D
C365        H370   1.078       .  S
C365        C366   1.363       .  D
C366        C409   1.567       .  S
O371        C374   1.273       .  A
O371       Cd376   2.211       .  S
C372        O381   1.276       .  A
C372        O377   1.262       .  A
C372        C460   1.455       .  S
O373       C1563   1.279       .  A
O373       Cd376   2.400       .  S
C374        O382   1.269       .  A
C374        C397   1.396       .  S
C375        O380   1.280       .  A
C375        O378   1.260       .  A
C375        C534   1.442       .  S
Cd376       O382   2.363       .  S
Cd376       O380   2.432       .  S
Cd376       O378   2.309       .  S
Cd376      O1567   2.412       .  S
Cd376      O1565   2.454       .  S
Cd376      O1561   2.319       .  S
O377      Cd1560   2.319   1_455  S
C379        O383   1.265   1_655  A
C379       O1557   1.279       .  A
C379       C1612   1.467       .  S
O381      Cd1560   2.454   1_455  S
O383      Cd1560   2.412   1_455  S
C384        C385   1.548       .  S
C384        C390   1.579       .  S
C384        C388   1.534       .  S
C385        H392   1.080       .  S
C385        C386   1.358       .  D
C386        C527   1.442       .  S
C386        C387   1.498       .  S
C387        C391   1.518       .  S
C387        C389   1.529       .  S
C387        H393   1.104       .  S
C388        H986   1.086       .  S
C388        C389   1.352       .  D
C389        C448   1.455       .  S
C390        H395   1.084       .  S
C390        C391   1.402       .  D
C391        C440   1.517       .  S
H394        C980   1.086       .  S
O396        C399   1.256       .  A
O396       Cd401   2.447       .  S
C397        O406   1.263       .  A
C397        O402   1.266       .  A
O398        C404   1.277       .  A
O398       Cd401   2.548       .  S
C399        O407   1.276       .  A
C400        O405   1.276       .  A
C400        O403   1.261       .  A
C400        C414   1.501       .  S
Cd401       O408   2.460       .  S
Cd401       O407   2.483       .  S
Cd401       O406   2.206       .  S
Cd401       O402   2.387       .  S
Cd401       O405   2.551       .  S
Cd401       O403   2.487       .  S
C404        O408   1.255       .  A
C404        C500   1.490       .  S
C409        C410   1.553       .  S
C409        C415   1.534       .  S
C409        C413   1.539       .  S
C410        H417   1.078       .  S
C410        C411   1.365       .  D
C411        C412   1.552       .  S
C411        C423   1.520       .  S
C412        C416   1.564       .  S
C412        C414   1.565       .  S
C412        H418   1.110       .  S
C413        H419   1.086       .  S
C413        C414   1.370       .  D
C415        H420   1.079       .  S
C415        C416   1.387       .  D
C421        C427   1.535       .  S
C421       C1606   1.543   1_455  S
C421       C1609   1.558   1_455  S
C421        C433   1.591       .  S
C422       C1605   1.543       .  S
C422        H429   1.085       .  S
C422        C423   1.383       .  D
C423        C424   1.559       .  S
C424        C428   1.543       .  S
C424        C426   1.525       .  S
C424        H430   1.110       .  S
C425       C1605   1.558       .  S
C425        H431   1.085       .  S
C425        C426   1.385       .  D
C426        C478   1.490       .  S
C427        H432   1.087       .  S
C427       C1612   1.337   1_455  D
C428       C1563   1.467       .  S
C428       C1611   1.337       .  D
C433        C434   1.527       .  S
C433        C439   1.541       .  S
C433        C437   1.537       .  S
C434        H441   1.078       .  S
C434        C435   1.363       .  D
C435        C436   1.573       .  S
C436        C440   1.543       .  S
C436        C438   1.553       .  S
C436        H442   1.109       .  S
C437        H443   1.087       .  S
C437        C438   1.353       .  D
C439        H444   1.080       .  S
C439        C440   1.399       .  D
O445        C448   1.262       .  A
O445      Cd2226   2.319   1_454  S
C446        O455   1.269   1_554  A
C446        O451   1.273       .  A
C446        C473   1.396       .  S
O447       C1637   1.279       .  A
O447       Cd450   2.401       .  S
C448       O1048   1.276   1_554  A
C449        O454   1.280       .  A
C449       O1044   1.260       .  A
Cd450       O454   2.433       .  S
Cd450      O2221   2.319       .  S
Cd450      O1641   2.412       .  S
Cd450      O1640   2.454       .  S
Cd450      O1047   2.361       .  S
Cd450      O1043   2.212       .  S
Cd450      O1044   2.310       .  S
O451      Cd1042   2.212   1_554  S
O452       C1041   1.260   1_554  A
O452      Cd1042   2.310   1_554  S
C453        O457   1.265   1_655  A
C453       O1631   1.279       .  A
C453       C1681   1.467       .  S
O455      Cd1042   2.361       .  S
O456       C1040   1.276       .  A
O456      Cd1634   2.454   1_455  S
O457      Cd1634   2.412   1_455  S
C458        C459   1.534       .  S
C458        C464   1.579       .  S
C458        C462   1.549   1_565  S
C459        H466   1.086       .  S
C459        C460   1.352       .  D
C460        C461   1.529       .  S
C461        C465   1.518       .  S
C461        C463   1.498   1_565  S
C461        H467   1.104       .  S
C462        H468   1.080       .  S
C462        C463   1.358       .  D
C464        H469   1.084       .  S
C464        C465   1.402       .  D
C465        C509   1.517       .  S
O470        C473   1.266       .  A
O470       Cd475   2.386       .  S
C471        O480   1.276       .  A
C471        O476   1.256       .  A
O472        C478   1.277       .  A
O472       Cd475   2.549       .  S
C473        O481   1.263       .  A
C474        O479   1.276       .  A
C474        O477   1.261       .  A
C474        C485   1.501       .  S
Cd475       O482   2.461       .  S
Cd475       O481   2.206       .  S
Cd475       O480   2.484       .  S
Cd475       O476   2.448       .  S
Cd475       O479   2.552       .  S
Cd475       O477   2.488       .  S
C478        O482   1.255       .  A
C483        C484   1.539       .  S
C483        C489   1.534       .  S
C483        C487   1.553       .  S
C483        C583   1.567   1_565  S
C484        H491   1.086       .  S
C484        C485   1.370       .  D
C485        C486   1.565       .  S
C486        C490   1.564       .  S
C486        C488   1.552       .  S
C486        H492   1.110   1_554  S
C487        H493   1.078       .  S
C487        C488   1.365       .  D
C488       C1094   1.520   1_554  S
C489        H494   1.079   1_565  S
C489        C490   1.387       .  D
C490        C828   1.561   1_554  S
C495        C496   1.535       .  S
C495       C1685   1.543   1_455  S
C495       C1683   1.558   1_455  S
C495        C507   1.591       .  S
C496        H503   1.087       .  S
C496       C1681   1.337   1_455  D
C497       C1637   1.467       .  S
C497        C498   1.543       .  S
C497       C1680   1.337       .  D
C498        C502   1.559       .  S
C498        C500   1.525       .  S
C498        H504   1.110       .  S
C499       C1679   1.558       .  S
C499        H505   1.085       .  S
C499        C500   1.385       .  D
C501       C1679   1.543       .  S
C501        H506   1.085       .  S
C501        C502   1.383       .  D
C502       C1080   1.520       .  S
C507        C508   1.541       .  S
C507        C513   1.527       .  S
C507        C511   1.537       .  S
C508        H515   1.080       .  S
C508        C509   1.399       .  D
C509        C510   1.543       .  S
C510        C514   1.573       .  S
C510        C512   1.553       .  S
C510        H516   1.109       .  S
C511        H517   1.087       .  S
C511        C512   1.353       .  D
C513        H518   1.078       .  S
C513        C514   1.363       .  D
C514        C557   1.567       .  S
O519       C1114   1.262       .  A
O519      Cd2300   2.319       .  S
C520        O525   1.273       .  A
C520       O1121   1.269       .  A
C520        C547   1.396       .  S
O521        C527   1.280       .  A
O521       Cd524   2.432       .  S
C522        O530   1.276       .  A
C522       O1111   1.262   1_554  A
C522        C904   1.455   1_554  S
C523        O528   1.279       .  A
C523        O526   1.265       .  A
C523        C576   1.467       .  S
Cd524       O531   2.309       .  S
Cd524       O529   2.363       .  S
Cd524       O528   2.400       .  S
Cd524       O526   2.412       .  S
Cd524      O2295   2.319   1_454  S
Cd524      O1714   2.454   1_455  S
Cd524      O1117   2.211   1_554  S
O525      Cd1116   2.211       .  S
C527        O531   1.260       .  A
O529       C1112   1.269       .  A
O530      Cd1708   2.454       .  S
C532        C533   1.548   1_545  S
C532        C538   1.579       .  S
C532        C536   1.534       .  S
C533        H540   1.080       .  S
C533        C534   1.358       .  D
C534        C535   1.498   1_565  S
C535        C539   1.518       .  S
C535        C537   1.529       .  S
C535        H541   1.104       .  S
C536        H542   1.086       .  S
C536        C537   1.352       .  D
C538        H543   1.084       .  S
C538        C539   1.402       .  D
C539        C588   1.517       .  S
O544        C547   1.266       .  A
O544       Cd549   2.387       .  S
C545        O554   1.276       .  A
C545        O550   1.256       .  A
O546        C552   1.276       .  A
O546       Cd549   2.551       .  S
C547        O555   1.263       .  A
C548        O553   1.277       .  A
C548        O551   1.255       .  A
Cd549       O556   2.487       .  S
Cd549       O555   2.206       .  S
Cd549       O554   2.483       .  S
Cd549       O550   2.447       .  S
Cd549       O553   2.548       .  S
Cd549       O551   2.460       .  S
C552        O556   1.261       .  A
C552        C562   1.501       .  S
C557        C558   1.553   1_565  S
C557        C563   1.534       .  S
C557        C561   1.539   1_565  S
C558       H1157   1.078       .  S
C558       C1151   1.365       .  D
C559        C560   1.552       .  S
C559       C1150   1.365       .  D
C559        C571   1.520       .  S
C560        C564   1.564       .  S
C560       C1154   1.565   1_554  S
C560        H566   1.110       .  S
C561        H567   1.086       .  S
C561        C562   1.370       .  D
C562       C1152   1.565       .  S
C563        H568   1.079       .  S
C563       C1156   1.387   1_565  D
C564       C1155   1.387   1_545  D
H565       C1150   1.078       .  S
C569        C570   1.543       .  S
C569        C575   1.535       .  S
C569        C573   1.558       .  S
C569       C1765   1.591   1_455  S
C570        H577   1.085       .  S
C570        C571   1.383       .  D
C571        C572   1.559       .  S
C572        C576   1.543       .  S
C572        C574   1.525       .  S
C572        H578   1.110       .  S
C573        H579   1.085       .  S
C573        C574   1.385       .  D
C575       H1764   1.087   1_455  S
C575        C576   1.337       .  D
H580       C1759   1.087       .  S
C581        C582   1.527       .  S
C581        C587   1.541       .  S
C581        C585   1.537       .  S
C581       C1753   1.591       .  S
C582        H589   1.078       .  S
C582        C583   1.363       .  D
C583        C584   1.573       .  S
C584        C588   1.543       .  S
C584        C586   1.553       .  S
C584        H590   1.109       .  S
C585        H591   1.087       .  S
C585        C586   1.353       .  D
C587        H592   1.080       .  S
C587        C588   1.399       .  D
O593        C596   1.273       .  A
C594        O599   1.262       .  A
C594        C756   1.455       .  S
O595        C601   1.279       .  A
O595       Cd598   2.400       .  S
C596        O604   1.269       .  A
C596        C619   1.396       .  S
C597        O602   1.280       .  A
C597        C830   1.442       .  S
Cd598       O605   2.412   1_556  S
Cd598       O603   2.454       .  S
Cd598       O602   2.432       .  S
C601        O605   1.265   1_556  A
C601        C650   1.467       .  S
C606        C607   1.548       .  S
C606        C612   1.579       .  S
C606        C610   1.534       .  S
C606        C934   1.561       .  S
C607        H614   1.080       .  S
C607        C608   1.358       .  D
C608        C823   1.442       .  S
C608        C609   1.498       .  S
C609        C613   1.518       .  S
C609        C611   1.529       .  S
C609        H615   1.104       .  S
C610        H616   1.086       .  S
C610        C611   1.352       .  D
C611        C742   1.456       .  S
C612        H617   1.084       .  S
C612        C613   1.402       .  D
C613        C662   1.517       .  S
O618        C621   1.256       .  A
O618       Cd623   2.447       .  S
C619        O628   1.263       .  A
C619        O624   1.266       .  A
O620        C626   1.277       .  A
O620       Cd623   2.548       .  S
C621        O629   1.276       .  A
C621       C1178   1.474       .  S
C622        O627   1.276       .  A
C622        O625   1.261       .  A
C622        C636   1.501       .  S
Cd623       O630   2.460       .  S
Cd623       O629   2.483       .  S
Cd623       O628   2.207       .  S
Cd623       O624   2.387       .  S
Cd623       O627   2.551       .  S
Cd623       O625   2.487       .  S
C626        O630   1.255       .  A
C626        C796   1.490       .  S
C631        C632   1.553       .  S
C631        C637   1.534       .  S
C631        C635   1.539       .  S
C631        C736   1.567       .  S
C632        H639   1.078       .  S
C632        C633   1.365       .  D
C633        C634   1.552       .  S
C634        C638   1.564       .  S
C634        C636   1.565       .  S
C634        H640   1.110       .  S
C635        H641   1.086       .  S
C635        C636   1.370       .  D
C637        H642   1.079       .  S
C637        C638   1.387       .  D
C643        C644   1.543       .  S
C643        C649   1.535       .  S
C643        C647   1.558       .  S
C643        C655   1.591       .  S
C644        H651   1.085       .  S
C644        C645   1.383       .  D
C645        C646   1.559       .  S
C646        C650   1.543       .  S
C646        C648   1.525       .  S
C646        H652   1.110       .  S
C647        H653   1.085       .  S
C647        C648   1.385       .  D
C648        C770   1.490       .  S
C649        H654   1.087       .  S
C649        C650   1.337       .  D
C655        C656   1.527       .  S
C655        C661   1.541       .  S
C655        C659   1.537       .  S
C656        H663   1.078       .  S
C656        C657   1.363       .  D
C657        C658   1.573       .  S
C657        C705   1.567       .  S
C658        C662   1.543       .  S
C658        C660   1.553       .  S
C658        H664   1.109       .  S
C659        H665   1.087       .  S
C659        C660   1.353       .  D
C660       C1137   1.474       .  S
C661        H666   1.080       .  S
C661        C662   1.399       .  D
C668        O673   1.273   1_554  A
C668        C693   1.396   1_554  S
O669        C675   1.279       .  A
O669       Cd672   2.402       .  S
C670        O678   1.276       .  A
C671        O676   1.280       .  A
C671        O674   1.260       .  A
C671        C759   1.442       .  S
Cd672       O679   2.412       .  S
Cd672       O678   2.454       .  S
Cd672       O677   2.361       .  S
Cd672       O676   2.433       .  S
Cd672       O674   2.310       .  S
C675        O679   1.265       .  A
C675        C719   1.467       .  S
C680        C681   1.534       .  S
C680        C686   1.579       .  S
C680        C684   1.549       .  S
C680       C1008   1.561       .  S
C681        H688   1.086       .  S
C681        C682   1.352       .  D
C682        C818   1.455       .  S
C682        C683   1.529       .  S
C683        C687   1.518       .  S
C683        C685   1.498       .  S
C683        H689   1.104       .  S
C684        H690   1.080       .  S
C684        C685   1.358       .  D
C685        C749   1.442       .  S
C686        H691   1.084       .  S
C686        C687   1.402       .  D
C687        C731   1.517       .  S
O692        C695   1.256       .  A
O692       Cd697   2.448       .  S
C693        O702   1.263       .  A
C693        O698   1.266       .  A
O694        C700   1.276       .  A
O694       Cd697   2.552       .  S
C695        O703   1.276       .  A
C695       C1104   1.475       .  S
C696        O701   1.277       .  A
C696        O699   1.255       .  A
C696        C870   1.490       .  S
Cd697       O704   2.488       .  S
Cd697       O703   2.484       .  S
Cd697       O702   2.206       .  S
Cd697       O698   2.386       .  S
Cd697       O701   2.549       .  S
Cd697       O699   2.461       .  S
C700        O704   1.261       .  A
C700        C707   1.501       .  S
C705        C706   1.538       .  S
C705        C711   1.534   1_556  S
C705        C709   1.553   1_556  S
C706        H713   1.086       .  S
C706        C707   1.370       .  D
C708        C712   1.564       .  S
C708        C710   1.552       .  S
C708        H714   1.110       .  S
C709        H715   1.078       .  S
C710        C724   1.520       .  S
C711        H716   1.079       .  S
C712        C976   1.561       .  S
C717        C718   1.535       .  S
C717        C723   1.543       .  S
C717        C721   1.558       .  S
C717        C729   1.591       .  S
C718        H725   1.087       .  S
C718        C719   1.337       .  D
C719        C720   1.543       .  S
C720        C724   1.559       .  S
C720        C722   1.525       .  S
C720        H726   1.110       .  S
C721        H727   1.085       .  S
C721        C722   1.385       .  D
C722        C844   1.490       .  S
C723        H728   1.085       .  S
C723        C724   1.383       .  D
C729        C730   1.541       .  S
C729        C735   1.527       .  S
C729        C733   1.537       .  S
C730        H737   1.080       .  S
C730        C731   1.399       .  D
C731        C732   1.543       .  S
C732        C736   1.573       .  S
C732        C734   1.553       .  S
C732        H738   1.109       .  S
C733        H739   1.087       .  S
C733        C734   1.353       .  D
C734       C1063   1.475       .  S
C735        H740   1.078       .  S
C735        C736   1.363       .  D
O741        C744   1.273       .  A
O741       Cd746   2.212       .  S
C742        O751   1.276       .  A
C742        O747   1.262       .  A
O743        C749   1.280       .  A
O743       Cd746   2.433       .  S
C744        O752   1.269       .  A
C744        C767   1.396       .  S
C745        O750   1.279       .  A
C745        O748   1.265       .  A
C745        C793   1.467       .  S
Cd746       O753   2.310       .  S
Cd746       O752   2.361       .  S
Cd746       O751   2.455       .  S
Cd746       O747   2.319       .  S
Cd746       O750   2.402       .  S
Cd746       O748   2.412       .  S
C749        O753   1.260       .  A
C754        C755   1.534       .  S
C754        C760   1.579       .  S
C754        C758   1.549   1_545  S
C754       C1156   1.561       .  S
C755        C756   1.352       .  D
C756        C757   1.529       .  S
C757        C761   1.518       .  S
C757        C759   1.498   1_545  S
C757        H763   1.104       .  S
C758        H764   1.080       .  S
C758        C759   1.358       .  D
C760        H765   1.084       .  S
C760        C761   1.402       .  D
C761        C805   1.517       .  S
O766        C769   1.256       .  A
O766       Cd771   2.448       .  S
C767        O776   1.263       .  A
C767        O772   1.266       .  A
O768        C774   1.276       .  A
O768       Cd771   2.552       .  S
C769        O777   1.276       .  A
C769        C956   1.475       .  S
C770        O775   1.277       .  A
C770        O773   1.255       .  A
Cd771       O778   2.488       .  S
Cd771       O777   2.484       .  S
Cd771       O776   2.206       .  S
Cd771       O772   2.386       .  S
Cd771       O775   2.549       .  S
Cd771       O773   2.461       .  S
C774        O778   1.261       .  A
C774        C781   1.501       .  S
C779        C780   1.538   1_565  S
C779        C785   1.534       .  S
C779        C783   1.553   1_565  S
C779        C879   1.567       .  S
C780        H787   1.086       .  S
C780        C781   1.370       .  D
C781        C782   1.565       .  S
C782        C786   1.564       .  S
C782        C784   1.552       .  S
C782        H788   1.110       .  S
C783        H789   1.078       .  S
C783        C784   1.365       .  D
C784        C798   1.520       .  S
C785        H790   1.079       .  S
C785        C786   1.387   1_565  D
C786       C1124   1.561       .  S
C791        C792   1.535       .  S
C791        C797   1.543       .  S
C791        C795   1.558       .  S
C791        C803   1.591       .  S
C792        H799   1.087       .  S
C792        C793   1.337       .  D
C793        C794   1.543       .  S
C794        C798   1.559       .  S
C794        C796   1.525       .  S
C794        H800   1.110       .  S
C795        H801   1.085       .  S
C795        C796   1.385       .  D
C797        H802   1.085       .  S
C797        C798   1.383       .  D
C803        C804   1.541       .  S
C803        C809   1.527       .  S
C803        C807   1.537       .  S
C804        H811   1.080       .  S
C804        C805   1.399       .  D
C805        C806   1.543       .  S
C806        C810   1.573       .  S
C806        C808   1.553       .  S
C806        H812   1.109       .  S
C807        H813   1.087       .  S
C807        C808   1.353       .  D
C808        C917   1.475       .  S
C809        H814   1.078       .  S
C809        C810   1.363       .  D
C810        C853   1.567   1_545  S
O815        C818   1.262       .  A
O815       Cd820   2.319       .  S
C816        O825   1.269       .  A
C816        O821   1.273       .  A
C816        C843   1.396       .  S
O817        C823   1.280       .  A
O817       Cd820   2.432       .  S
C818        O826   1.276       .  A
C819        O824   1.279       .  A
C819        O822   1.265       .  A
C819        C872   1.467       .  S
Cd820       O827   2.309       .  S
Cd820       O826   2.454       .  S
Cd820       O825   2.363       .  S
Cd820       O821   2.211       .  S
Cd820       O824   2.400       .  S
Cd820       O822   2.412       .  S
C823        O827   1.260       .  A
C828        C829   1.548   1_565  S
C828        C834   1.579       .  S
C829        C830   1.358       .  D
C830        C831   1.498   1_545  S
C831        C835   1.518       .  S
C831        C833   1.529       .  S
C831        H837   1.104       .  S
C832        H838   1.086       .  S
C834        H839   1.084       .  S
C834        C835   1.402       .  D
C835        C884   1.517       .  S
O840        C843   1.266       .  A
O840       Cd845   2.387       .  S
C841        O850   1.276       .  A
C841        O846   1.256       .  A
C841       C1030   1.474       .  S
O842        C848   1.276       .  A
O842       Cd845   2.551       .  S
C843        O851   1.263       .  A
C844        O849   1.277       .  A
C844        O847   1.255       .  A
Cd845       O852   2.487       .  S
Cd845       O851   2.206       .  S
Cd845       O850   2.483       .  S
Cd845       O846   2.447       .  S
Cd845       O849   2.548       .  S
Cd845       O847   2.461       .  S
C848        O852   1.261       .  A
C848        C858   1.501       .  S
C853        C854   1.553       .  S
C853        C859   1.534       .  S
C853        C857   1.539       .  S
C854        H861   1.078       .  S
C854        C855   1.365       .  D
C855        C856   1.552       .  S
C855        C867   1.520       .  S
C856        C860   1.564       .  S
C856        C858   1.565       .  S
C856        H862   1.110       .  S
C857        H863   1.086       .  S
C857        C858   1.370       .  D
C859        H864   1.078   1_565  S
C859        C860   1.387       .  D
C860       C1050   1.561       .  S
C865        C866   1.543       .  S
C865        C871   1.535       .  S
C865        C869   1.558       .  S
C865        C877   1.591       .  S
C866        H873   1.085       .  S
C866        C867   1.383       .  D
C867        C868   1.559       .  S
C868        C872   1.543       .  S
C868        C870   1.525       .  S
C868        H874   1.110       .  S
C869        H875   1.085       .  S
C869        C870   1.385       .  D
C871        H876   1.087       .  S
C871        C872   1.337       .  D
C877        C878   1.527       .  S
C877        C883   1.541       .  S
C877        C881   1.537       .  S
C878        H885   1.078       .  S
C878        C879   1.363       .  D
C879        C880   1.573       .  S
C880        C884   1.543       .  S
C880        C882   1.553       .  S
C880        H886   1.109       .  S
C881        H887   1.087       .  S
C881        C882   1.353       .  D
C882        C991   1.474       .  S
C883        H888   1.080       .  S
C883        C884   1.399       .  D
O889        C892   1.273       .  A
O889       Cd894   2.212       .  S
C890        O899   1.276       .  A
C890        O895   1.262       .  A
C890       C1129   1.455       .  S
O891        C897   1.280       .  A
O891       Cd894   2.433       .  S
C892        O900   1.269       .  A
C892        C915   1.396       .  S
C893        O898   1.279       .  A
C893        O896   1.265       .  A
C893        C941   1.467       .  S
Cd894       O901   2.310       .  S
Cd894       O900   2.361       .  S
Cd894      O2083   2.455   1_455  S
Cd894      O2079   2.319   1_455  S
Cd894       O898   2.401       .  S
Cd894       O896   2.412       .  S
O895      Cd2078   2.319       .  S
C897        O901   1.260       .  A
C897       C1055   1.442       .  S
O899      Cd2078   2.455       .  S
C902        C908   1.579       .  S
C902        C906   1.549       .  S
C903        H910   1.086       .  S
C904        C905   1.529       .  S
C905        C909   1.518       .  S
C905        C907   1.498       .  S
C905        H911   1.104       .  S
C906        C907   1.358       .  D
C907       C1041   1.442       .  S
C908        H913   1.084       .  S
C908        C909   1.402       .  D
C909        C953   1.517       .  S
O914        C917   1.256       .  A
O914       Cd919   2.448       .  S
C915        O924   1.263       .  A
C915        O920   1.266       .  A
O916        C922   1.276       .  A
O916       Cd919   2.552       .  S
C917        O925   1.276       .  A
C918        O923   1.277       .  A
C918        O921   1.255       .  A
C918       C1166   1.490       .  S
Cd919       O926   2.488       .  S
Cd919       O925   2.484       .  S
Cd919       O924   2.206       .  S
Cd919       O920   2.386       .  S
Cd919       O923   2.549       .  S
Cd919       O921   2.461       .  S
C922        O926   1.261       .  A
C922        C929   1.501       .  S
C927        C928   1.539       .  S
C927        C933   1.534       .  S
C927        C931   1.553       .  S
C927       C1027   1.567       .  S
C928        H935   1.086       .  S
C928        C929   1.370       .  D
C929        C930   1.565       .  S
C930        C934   1.564       .  S
C930        C932   1.552       .  S
C930        H936   1.110       .  S
C931        H937   1.078       .  S
C931        C932   1.365       .  D
C932        C946   1.520       .  S
C933        H938   1.079       .  S
C933        C934   1.387       .  D
C939        C940   1.535       .  S
C939        C945   1.543       .  S
C939        C943   1.558       .  S
C939       C2135   1.591   1_455  S
C940       H2131   1.087   1_455  S
C940        C941   1.337       .  D
C941        C942   1.543       .  S
C942        C946   1.559       .  S
C942        C944   1.525       .  S
C942        H948   1.110       .  S
C943        H949   1.085       .  S
C943        C944   1.385       .  D
C944       C1140   1.490       .  S
C945        H950   1.085       .  S
C945        C946   1.383       .  D
H947       C2124   1.087       .  S
C951        C952   1.541       .  S
C951        C957   1.527       .  S
C951        C955   1.537       .  S
C951       C2123   1.591       .  S
C952        H959   1.080       .  S
C952        C953   1.399       .  D
C953        C954   1.543       .  S
C954        C958   1.573       .  S
C954        C956   1.553       .  S
C954        H960   1.109       .  S
C955        H961   1.087       .  S
C955        C956   1.353       .  D
C957        H962   1.078       .  S
C957        C958   1.363       .  D
C958       C1001   1.567       .  S
O963        C966   1.273       .  A
O963       Cd968   2.211       .  S
C964        O973   1.276       .  A
C964        O969   1.262       .  A
C964       C1052   1.455       .  S
O965       C2155   1.279       .  A
O965       Cd968   2.400       .  S
C966        O974   1.269       .  A
C966        C989   1.396       .  S
C967        O972   1.280       .  A
C967        O970   1.260       .  A
C967       C1126   1.442       .  S
Cd968      O2159   2.412       .  S
Cd968       O974   2.363       .  S
Cd968      O2157   2.454       .  S
Cd968      O2153   2.319       .  S
Cd968       O972   2.432       .  S
Cd968       O970   2.309       .  S
O969      Cd2152   2.319   1_455  S
C971       O2149   1.279       .  A
C971        O975   1.265   1_655  A
C971       C2204   1.467       .  S
O973      Cd2152   2.454   1_455  S
O975      Cd2152   2.412   1_455  S
C976        C977   1.548       .  S
C976        C982   1.579       .  S
C976        C980   1.534       .  S
C977        H984   1.080       .  S
C977        C978   1.358       .  D
C978       C1119   1.442       .  S
C978        C979   1.498       .  S
C979        C983   1.518       .  S
C979        C981   1.529       .  S
C979        H985   1.104       .  S
C980        C981   1.352       .  D
C981       C1040   1.455       .  S
C982        H987   1.084       .  S
C982        C983   1.402       .  D
C983       C1032   1.517       .  S
O988        C991   1.256       .  A
O988       Cd993   2.447       .  S
C989        O998   1.263       .  A
C989        O994   1.266       .  A
O990        C996   1.277       .  A
O990       Cd993   2.548       .  S
C991        O999   1.276       .  A
C992        O997   1.276       .  A
C992        O995   1.261       .  A
C992       C1006   1.501       .  S
Cd993      O1000   2.460       .  S
Cd993       O999   2.483       .  S
Cd993       O998   2.206       .  S
Cd993       O994   2.387       .  S
Cd993       O997   2.551       .  S
Cd993       O995   2.487       .  S
C996       O1000   1.255       .  A
C996       C1092   1.490       .  S
C1001      C1002   1.553       .  S
C1001      C1007   1.534       .  S
C1001      C1005   1.539       .  S
C1002      H1009   1.078       .  S
C1002      C1003   1.365       .  D
C1003      C1004   1.552       .  S
C1003      C1015   1.520       .  S
C1004      C1008   1.564       .  S
C1004      C1006   1.565       .  S
C1004      H1010   1.110       .  S
C1005      H1011   1.086       .  S
C1005      C1006   1.370       .  D
C1007      H1012   1.079       .  S
C1007      C1008   1.387       .  D
C1013      C2198   1.543   1_455  S
C1013      C1019   1.535       .  S
C1013      C2201   1.558   1_455  S
C1013      C1025   1.591       .  S
C1014      C2197   1.543       .  S
C1014      H1021   1.085       .  S
C1014      C1015   1.383       .  D
C1015      C1016   1.559       .  S
C1016      C1020   1.543       .  S
C1016      C1018   1.525       .  S
C1016      H1022   1.110       .  S
C1017      C2197   1.558       .  S
C1017      H1023   1.085       .  S
C1017      C1018   1.385       .  D
C1018      C1070   1.490       .  S
C1019      H1024   1.087       .  S
C1019      C2204   1.337   1_455  D
C1020      C2155   1.467       .  S
C1020      C2203   1.337       .  D
C1025      C1026   1.527       .  S
C1025      C1031   1.541       .  S
C1025      C1029   1.537       .  S
C1026      H1033   1.078       .  S
C1026      C1027   1.363       .  D
C1027      C1028   1.573       .  S
C1028      C1032   1.543       .  S
C1028      C1030   1.553       .  S
C1028      H1034   1.109       .  S
C1029      H1035   1.087       .  S
C1029      C1030   1.353       .  D
C1031      H1036   1.080       .  S
C1031      C1032   1.399       .  D
O1037      C1040   1.262       .  A
O1037     Cd1634   2.319   1_455  S
C1038      O1047   1.269       .  A
C1038      O1043   1.273       .  A
C1038      C1065   1.396       .  S
O1039      C2229   1.279       .  A
O1039     Cd1042   2.401       .  S
C1041      O1046   1.280       .  A
Cd1042     O1629   2.319   1_556  S
Cd1042     O2233   2.412   1_556  S
Cd1042     O2232   2.454       .  S
Cd1042     O1046   2.433       .  S
C1045      O2223   1.279       .  A
C1045      O1049   1.265   1_656  A
C1045      C2273   1.467       .  S
O1048     Cd2226   2.454   1_455  S
O1049     Cd2226   2.412   1_454  S
C1050      C1051   1.534       .  S
C1050      C1056   1.579       .  S
C1050      C1054   1.549   1_565  S
C1051      H1058   1.086       .  S
C1051      C1052   1.352       .  D
C1052      C1053   1.529       .  S
C1053      C1057   1.518       .  S
C1053      C1055   1.498   1_565  S
C1053      H1059   1.104       .  S
C1054      H1060   1.080       .  S
C1054      C1055   1.358       .  D
C1056      H1061   1.084       .  S
C1056      C1057   1.402       .  D
C1057      C1101   1.517       .  S
O1062      C1065   1.266       .  A
O1062     Cd1067   2.386       .  S
C1063      O1072   1.276       .  A
C1063      O1068   1.256       .  A
O1064      C1070   1.277       .  A
O1064     Cd1067   2.549       .  S
C1065      O1073   1.263       .  A
C1066      O1071   1.276       .  A
C1066      O1069   1.261       .  A
C1066      C1077   1.501       .  S
Cd1067     O1074   2.461       .  S
Cd1067     O1073   2.206       .  S
Cd1067     O1072   2.484       .  S
Cd1067     O1068   2.448       .  S
Cd1067     O1071   2.552       .  S
Cd1067     O1069   2.488       .  S
C1070      O1074   1.255       .  A
C1075      C1076   1.539       .  S
C1075      C1081   1.534       .  S
C1075      C1079   1.553       .  S
C1075      C1175   1.567   1_565  S
C1076      H1083   1.086       .  S
C1076      C1077   1.370       .  D
C1077      C1078   1.565       .  S
C1078      C1082   1.564       .  S
C1078      C1080   1.552       .  S
C1078      H1084   1.110       .  S
C1079      H1085   1.078       .  S
C1079      C1080   1.365       .  D
C1081      H1086   1.079   1_565  S
C1081      C1082   1.387       .  D
C1087      C1088   1.535       .  S
C1087      C2277   1.543   1_455  S
C1087      C2275   1.558   1_455  S
C1087      C1099   1.591       .  S
C1088      H1095   1.087       .  S
C1088      C2273   1.337   1_455  D
C1089      C2229   1.467       .  S
C1089      C1090   1.543       .  S
C1089      C2272   1.337       .  D
C1090      C1094   1.559       .  S
C1090      C1092   1.525       .  S
C1090      H1096   1.110       .  S
C1091      C2271   1.558       .  S
C1091      H1097   1.085       .  S
C1091      C1092   1.385       .  D
C1093      C2271   1.543       .  S
C1093      H1098   1.085       .  S
C1093      C1094   1.383       .  D
C1099      C1100   1.541       .  S
C1099      C1105   1.527       .  S
C1099      C1103   1.537       .  S
C1100      H1107   1.080       .  S
C1100      C1101   1.399       .  D
C1101      C1102   1.543       .  S
C1102      C1106   1.573       .  S
C1102      C1104   1.553       .  S
C1102      H1108   1.109       .  S
C1103      H1109   1.087       .  S
C1103      C1104   1.353       .  D
C1105      H1110   1.078       .  S
C1105      C1106   1.363       .  D
C1106      C1149   1.567       .  S
O1111     Cd1708   2.319   1_556  S
C1112      O1117   1.273   1_554  A
C1112      C1139   1.396   1_554  S
O1113      C1119   1.280       .  A
O1113     Cd1116   2.432       .  S
C1114      O1122   1.276       .  A
C1115      O1120   1.279       .  A
C1115      O1118   1.265       .  A
C1115      C1168   1.467       .  S
Cd1116     O1703   2.319   1_455  S
Cd1116     O1123   2.309       .  S
Cd1116     O2306   2.454   1_455  S
Cd1116     O1121   2.363       .  S
Cd1116     O1120   2.400       .  S
Cd1116     O1118   2.412       .  S
C1119      O1123   1.260       .  A
O1122     Cd2300   2.454       .  S
C1124      C1125   1.548   1_545  S
C1124      C1130   1.579       .  S
C1124      C1128   1.534       .  S
C1125      H1132   1.080       .  S
C1125      C1126   1.358       .  D
C1126      C1127   1.498   1_565  S
C1127      C1131   1.518       .  S
C1127      C1129   1.529       .  S
C1127      H1133   1.104       .  S
C1128      H1134   1.086       .  S
C1128      C1129   1.352       .  D
C1130      H1135   1.084       .  S
C1130      C1131   1.402       .  D
C1131      C1180   1.517       .  S
O1136      C1139   1.266       .  A
O1136     Cd1141   2.387       .  S
C1137      O1146   1.276       .  A
C1137      O1142   1.256       .  A
O1138      C1144   1.276       .  A
O1138     Cd1141   2.551       .  S
C1139      O1147   1.263       .  A
C1140      O1145   1.277       .  A
C1140      O1143   1.255       .  A
Cd1141     O1148   2.487       .  S
Cd1141     O1147   2.206       .  S
Cd1141     O1146   2.483       .  S
Cd1141     O1142   2.447       .  S
Cd1141     O1145   2.548       .  S
Cd1141     O1143   2.460       .  S
C1144      O1148   1.261       .  A
C1144      C1154   1.501       .  S
C1149      C1150   1.553   1_566  S
C1149      C1155   1.534   1_556  S
C1149      C1153   1.539   1_565  S
C1151      C1152   1.552       .  S
C1151      C1163   1.520       .  S
C1152      C1156   1.564       .  S
C1152      H1158   1.110       .  S
C1153      H1159   1.086       .  S
C1153      C1154   1.370       .  D
C1155      H1160   1.079       .  S
C1161      C1162   1.543       .  S
C1161      C1167   1.535       .  S
C1161      C1165   1.558       .  S
C1161      C2357   1.591   1_455  S
C1162      H1169   1.085       .  S
C1162      C1163   1.383       .  D
C1163      C1164   1.559       .  S
C1164      C1168   1.543       .  S
C1164      C1166   1.525       .  S
C1164      H1170   1.110       .  S
C1165      H1171   1.085       .  S
C1165      C1166   1.385       .  D
C1167      H2356   1.087   1_455  S
C1167      C1168   1.337       .  D
H1172      C2351   1.087       .  S
C1173      C1174   1.527       .  S
C1173      C1179   1.541       .  S
C1173      C1177   1.537       .  S
C1173      C2345   1.591       .  S
C1174      H1181   1.078       .  S
C1174      C1175   1.363       .  D
C1175      C1176   1.573       .  S
C1176      C1180   1.543       .  S
C1176      C1178   1.553       .  S
C1176      H1182   1.109       .  S
C1177      H1183   1.087       .  S
C1177      C1178   1.353       .  D
C1179      H1184   1.080       .  S
C1179      C1180   1.399       .  D
O1185      C1188   1.273       .  A
O1185     Cd1782   2.211   1_554  S
C1186      O1787   1.276   1_554  A
C1186      O1191   1.262       .  A
C1186      C1348   1.455       .  S
O1187      C1193   1.279       .  A
O1187     Cd1190   2.400       .  S
C1188      O1196   1.269   1_554  A
C1188      C1211   1.396       .  S
C1189      O1194   1.280       .  A
C1189      O1784   1.260       .  A
C1189      C1422   1.442       .  S
Cd1190     O1777   2.211       .  S
Cd1190     O1197   2.412       .  S
Cd1190     O1788   2.363       .  S
Cd1190     O1195   2.454       .  S
Cd1190     O1783   2.319       .  S
Cd1190     O1194   2.432       .  S
Cd1190     O1784   2.309       .  S
O1191     Cd1782   2.319   1_554  S
O1192      C1781   1.260   1_554  A
O1192     Cd1782   2.309   1_554  S
C1193      O1197   1.265       .  A
C1193      C1242   1.467       .  S
O1195      C1778   1.276       .  A
O1196     Cd1782   2.363       .  S
C1198      C1199   1.548       .  S
C1198      C1204   1.579       .  S
C1198      C1202   1.534       .  S
C1198      C1526   1.561       .  S
C1199      H1206   1.080       .  S
C1199      C1200   1.358       .  D
C1200      C1415   1.442       .  S
C1200      C1201   1.498       .  S
C1201      C1205   1.518       .  S
C1201      C1203   1.529       .  S
C1201      H1207   1.104       .  S
C1202      H1208   1.086       .  S
C1202      C1203   1.352       .  D
C1203      C1334   1.456       .  S
C1204      H1209   1.084       .  S
C1204      C1205   1.402       .  D
C1205      C1254   1.517       .  S
O1210      C1213   1.256       .  A
O1210     Cd1215   2.447       .  S
C1211      O1220   1.263       .  A
C1211      O1216   1.266       .  A
O1212      C1218   1.277       .  A
O1212     Cd1215   2.548       .  S
C1213      O1221   1.276       .  A
C1213      C1770   1.474       .  S
C1214      O1219   1.276       .  A
C1214      O1217   1.261       .  A
C1214      C1228   1.501       .  S
Cd1215     O1222   2.460       .  S
Cd1215     O1221   2.483       .  S
Cd1215     O1220   2.207       .  S
Cd1215     O1216   2.387       .  S
Cd1215     O1219   2.551       .  S
Cd1215     O1217   2.487       .  S
C1218      O1222   1.255       .  A
C1218      C1388   1.490       .  S
C1223      C1224   1.553       .  S
C1223      C1229   1.534       .  S
C1223      C1227   1.539       .  S
C1223      C1328   1.567       .  S
C1224      H1231   1.078       .  S
C1224      C1225   1.365       .  D
C1225      C1226   1.552       .  S
C1225      C1829   1.520   1_554  S
C1226      C1230   1.564       .  S
C1226      C1228   1.565       .  S
C1226      H1232   1.110   1_554  S
C1227      H1233   1.086       .  S
C1227      C1228   1.370       .  D
C1229      H1234   1.079       .  S
C1229      C1230   1.387       .  D
C1230      C2086   1.561   1_554  S
C1235      C1236   1.543       .  S
C1235      C1241   1.535       .  S
C1235      C1239   1.558       .  S
C1235      C1247   1.591       .  S
C1236      H1243   1.085       .  S
C1236      C1237   1.383       .  D
C1237      C1238   1.559       .  S
C1237      C1817   1.520       .  S
C1238      C1242   1.543       .  S
C1238      C1240   1.525       .  S
C1238      H1244   1.110       .  S
C1239      H1245   1.085       .  S
C1239      C1240   1.385       .  D
C1240      C1362   1.490       .  S
C1241      H1246   1.087       .  S
C1241      C1242   1.337       .  D
C1247      C1248   1.527       .  S
C1247      C1253   1.541       .  S
C1247      C1251   1.537       .  S
C1248      H1255   1.078       .  S
C1248      C1249   1.363       .  D
C1249      C1250   1.573       .  S
C1249      C1297   1.567       .  S
C1250      C1254   1.543       .  S
C1250      C1252   1.553       .  S
C1250      H1256   1.109       .  S
C1251      H1257   1.087       .  S
C1251      C1252   1.353       .  D
C1252      C1729   1.474       .  S
C1253      H1258   1.080       .  S
C1253      C1254   1.399       .  D
O1259      C1854   1.262       .  A
O1259     Cd1856   2.319       .  S
C1260      O1861   1.269       .  A
C1260      O1265   1.273       .  A
C1260      C1285   1.396       .  S
O1261      C1267   1.279       .  A
O1261     Cd1264   2.402       .  S
C1262      O1851   1.262   1_554  A
C1262      O1270   1.276       .  A
C1262      C2017   1.456   1_554  S
C1263      O1268   1.280       .  A
C1263      O1266   1.260       .  A
C1263      C1351   1.442       .  S
Cd1264     O1851   2.319   1_554  S
Cd1264     O1271   2.412       .  S
Cd1264     O1270   2.454       .  S
Cd1264     O1269   2.361       .  S
Cd1264     O1857   2.212   1_554  S
Cd1264     O1268   2.433       .  S
Cd1264     O1266   2.310       .  S
O1265     Cd1856   2.212       .  S
C1267      O1271   1.265       .  A
C1267      C1311   1.467       .  S
O1269      C1852   1.269       .  A
C1272      C1273   1.534       .  S
C1272      C1278   1.579       .  S
C1272      C1276   1.549       .  S
C1272      C1600   1.561       .  S
C1273      H1280   1.086       .  S
C1273      C1274   1.352       .  D
C1274      C1410   1.455       .  S
C1274      C1275   1.529       .  S
C1275      C1279   1.518       .  S
C1275      C1277   1.498       .  S
C1275      H1281   1.104       .  S
C1276      H1282   1.080       .  S
C1276      C1277   1.358       .  D
C1277      C1341   1.442       .  S
C1278      H1283   1.084       .  S
C1278      C1279   1.402       .  D
C1279      C1323   1.517       .  S
O1284      C1287   1.256       .  A
O1284     Cd1289   2.448       .  S
C1285      O1294   1.263       .  A
C1285      O1290   1.266       .  A
O1286      C1292   1.276       .  A
O1286     Cd1289   2.552       .  S
C1287      O1295   1.276       .  A
C1287      C1696   1.475       .  S
C1288      O1293   1.277       .  A
C1288      O1291   1.255       .  A
C1288      C1462   1.490       .  S
Cd1289     O1296   2.488       .  S
Cd1289     O1295   2.484       .  S
Cd1289     O1294   2.206       .  S
Cd1289     O1290   2.386       .  S
Cd1289     O1293   2.549       .  S
Cd1289     O1291   2.461       .  S
C1292      O1296   1.261       .  A
C1292      C1299   1.501       .  S
C1297      C1298   1.538       .  S
C1297      C1303   1.534       .  S
C1297      C1301   1.553       .  S
C1298      H1305   1.086       .  S
C1298      C1299   1.370       .  D
C1299      C1892   1.565       .  S
C1300      C1891   1.565   1_554  S
C1300      C1304   1.564       .  S
C1300      C1302   1.552       .  S
C1300      H1306   1.110       .  S
C1301      H1307   1.078       .  S
C1301      C1894   1.365       .  D
C1302      C1893   1.365       .  D
C1302      C1316   1.520       .  S
C1303      H1308   1.079       .  S
C1303      C1896   1.387       .  D
C1304      C1568   1.561       .  S
C1304      C1895   1.387       .  D
C1309      C1310   1.535       .  S
C1309      C1315   1.543       .  S
C1309      C1313   1.558       .  S
C1309      C1321   1.591       .  S
C1310      H1317   1.087       .  S
C1310      C1311   1.337       .  D
C1311      C1312   1.543       .  S
C1312      C1316   1.559       .  S
C1312      C1314   1.525       .  S
C1312      H1318   1.110       .  S
C1313      H1319   1.085       .  S
C1313      C1314   1.385       .  D
C1314      C1436   1.490       .  S
C1315      H1320   1.085       .  S
C1315      C1316   1.383       .  D
C1321      C1322   1.541       .  S
C1321      C1327   1.527       .  S
C1321      C1325   1.537       .  S
C1322      H1329   1.080       .  S
C1322      C1323   1.399       .  D
C1323      C1324   1.543       .  S
C1324      C1328   1.573       .  S
C1324      C1326   1.553       .  S
C1324      H1330   1.109       .  S
C1325      H1331   1.087       .  S
C1325      C1326   1.353       .  D
C1326      C1655   1.475       .  S
C1327      H1332   1.078       .  S
C1327      C1328   1.363       .  D
O1333      C1336   1.273       .  A
O1333     Cd1338   2.212       .  S
C1334      O1343   1.276       .  A
C1334      O1339   1.262       .  A
O1335      C1341   1.280       .  A
O1335     Cd1338   2.433       .  S
C1336      O1344   1.269       .  A
C1336      C1359   1.396       .  S
C1337      O1342   1.279       .  A
C1337      O1340   1.265       .  A
C1337      C1385   1.467       .  S
Cd1338     O1345   2.310       .  S
Cd1338     O1344   2.361       .  S
Cd1338     O1343   2.455       .  S
Cd1338     O1339   2.319       .  S
Cd1338     O1342   2.402       .  S
Cd1338     O1340   2.412       .  S
C1341      O1345   1.260       .  A
C1346      C1347   1.534       .  S
C1346      C1352   1.579       .  S
C1346      C1350   1.549   1_545  S
C1346      C1748   1.561       .  S
C1347      H1946   1.086       .  S
C1347      C1348   1.352       .  D
C1348      C1349   1.529       .  S
C1349      C1353   1.518       .  S
C1349      C1351   1.498   1_545  S
C1349      H1355   1.104       .  S
C1350      H1356   1.080       .  S
C1350      C1351   1.358       .  D
C1352      H1357   1.084       .  S
C1352      C1353   1.402       .  D
C1353      C1397   1.517       .  S
H1354      C1939   1.086       .  S
O1358      C1361   1.256       .  A
O1358     Cd1363   2.448       .  S
C1359      O1368   1.263       .  A
C1359      O1364   1.266       .  A
O1360      C1366   1.276       .  A
O1360     Cd1363   2.552       .  S
C1361      O1369   1.276       .  A
C1361      C1548   1.475       .  S
C1362      O1367   1.277       .  A
C1362      O1365   1.255       .  A
Cd1363     O1370   2.488       .  S
Cd1363     O1369   2.484       .  S
Cd1363     O1368   2.206       .  S
Cd1363     O1364   2.386       .  S
Cd1363     O1367   2.549       .  S
Cd1363     O1365   2.461       .  S
C1366      O1370   1.261       .  A
C1366      C1373   1.501       .  S
C1371      C1372   1.538   1_565  S
C1371      C1377   1.534       .  S
C1371      C1375   1.553   1_565  S
C1371      C1471   1.567       .  S
C1372      H1379   1.086       .  S
C1372      C1373   1.370       .  D
C1373      C1374   1.565       .  S
C1374      C1378   1.564       .  S
C1374      C1376   1.552       .  S
C1374      H1380   1.110       .  S
C1375      H1381   1.078       .  S
C1375      C1376   1.365       .  D
C1376      C1390   1.520       .  S
C1377      H1382   1.078       .  S
C1377      C1378   1.387   1_565  D
C1378      C1716   1.561       .  S
C1383      C1384   1.535       .  S
C1383      C1389   1.543       .  S
C1383      C1387   1.558       .  S
C1383      C1395   1.591       .  S
C1384      H1391   1.087       .  S
C1384      C1385   1.337       .  D
C1385      C1386   1.543       .  S
C1386      C1390   1.559       .  S
C1386      C1388   1.525       .  S
C1386      H1392   1.110       .  S
C1387      H1393   1.085       .  S
C1387      C1388   1.385       .  D
C1389      H1394   1.085       .  S
C1389      C1390   1.383       .  D
C1395      C1396   1.541       .  S
C1395      C1401   1.527       .  S
C1395      C1399   1.537       .  S
C1396      H1403   1.080       .  S
C1396      C1397   1.399       .  D
C1397      C1398   1.543       .  S
C1398      C1402   1.573       .  S
C1398      C1400   1.553       .  S
C1398      H1404   1.109       .  S
C1399      H1405   1.087       .  S
C1399      C1400   1.353       .  D
C1400      C1509   1.475       .  S
C1401      H1406   1.078       .  S
C1401      C1402   1.363       .  D
C1402      C1445   1.567   1_545  S
O1407      C1410   1.262       .  A
O1407     Cd1412   2.319       .  S
C1408      O1417   1.269       .  A
C1408      O1413   1.273       .  A
C1408      C1435   1.396       .  S
O1409      C1415   1.280       .  A
O1409     Cd1412   2.432       .  S
C1410      O1418   1.276       .  A
C1411      O1416   1.279       .  A
C1411      O1414   1.265       .  A
C1411      C1464   1.467       .  S
Cd1412     O1419   2.309       .  S
Cd1412     O1418   2.454       .  S
Cd1412     O1417   2.363       .  S
Cd1412     O1413   2.211       .  S
Cd1412     O1416   2.400       .  S
Cd1412     O1414   2.412       .  S
C1415      O1419   1.260       .  A
C1420      C1421   1.548   1_565  S
C1420      C1426   1.579       .  S
C1420      C2016   1.534       .  S
C1420      C2266   1.561       .  S
C1421      H2020   1.080       .  S
C1421      C1422   1.358       .  D
C1422      C1423   1.498   1_545  S
C1423      C1427   1.518       .  S
C1423      C1425   1.529       .  S
C1423      H1429   1.104       .  S
C1424      C2012   1.534   1_554  S
C1424      H1430   1.086       .  S
C1424      C2017   1.352   1_554  D
C1425      C1854   1.455       .  S
C1425      C2016   1.352       .  D
C1426      H1431   1.084       .  S
C1426      C1427   1.402       .  D
C1427      C1476   1.517       .  S
H1428      C2013   1.080       .  S
O1432      C1435   1.266       .  A
O1432     Cd1437   2.387       .  S
C1433      O1442   1.276       .  A
C1433      O1438   1.256       .  A
C1433      C1622   1.474       .  S
O1434      C1440   1.276       .  A
O1434     Cd1437   2.551       .  S
C1435      O1443   1.263       .  A
C1436      O1441   1.277       .  A
C1436      O1439   1.255       .  A
Cd1437     O1444   2.487       .  S
Cd1437     O1443   2.206       .  S
Cd1437     O1442   2.483       .  S
Cd1437     O1438   2.447       .  S
Cd1437     O1441   2.548       .  S
Cd1437     O1439   2.461       .  S
C1440      O1444   1.261       .  A
C1440      C1450   1.501       .  S
C1445      C1446   1.553       .  S
C1445      C1451   1.534       .  S
C1445      C1449   1.539       .  S
C1446      H1453   1.078       .  S
C1446      C1447   1.365       .  D
C1447      C1448   1.552       .  S
C1447      C1459   1.520       .  S
C1448      C1452   1.564       .  S
C1448      C1450   1.565       .  S
C1448      H1454   1.110       .  S
C1449      H1455   1.086       .  S
C1449      C1450   1.370       .  D
C1451      H1456   1.079   1_565  S
C1451      C1452   1.387       .  D
C1452      C1642   1.561       .  S
C1457      C1458   1.543       .  S
C1457      C1463   1.535       .  S
C1457      C1461   1.558       .  S
C1457      C1469   1.591       .  S
C1458      H1465   1.085       .  S
C1458      C1459   1.383       .  D
C1459      C1460   1.559       .  S
C1460      C1464   1.543       .  S
C1460      C1462   1.525       .  S
C1460      H1466   1.110       .  S
C1461      H1467   1.085       .  S
C1461      C1462   1.385       .  D
C1463      H1468   1.087       .  S
C1463      C1464   1.337       .  D
C1469      C1470   1.527       .  S
C1469      C1475   1.541       .  S
C1469      C1473   1.537       .  S
C1470      H1477   1.078       .  S
C1470      C1471   1.363       .  D
C1471      C1472   1.573       .  S
C1472      C1476   1.543       .  S
C1472      C1474   1.553       .  S
C1472      H1478   1.109       .  S
C1473      H1479   1.087       .  S
C1473      C1474   1.353       .  D
C1474      C1583   1.474       .  S
C1475      H1480   1.080       .  S
C1475      C1476   1.399       .  D
O1481      C1484   1.273       .  A
O1481     Cd1486   2.212       .  S
C1482      O1491   1.276       .  A
C1482      O1487   1.262       .  A
C1482      C1721   1.455       .  S
O1483      C1489   1.280       .  A
O1483     Cd1486   2.433       .  S
C1484      O1492   1.269       .  A
C1484      C1507   1.396       .  S
C1485      O1490   1.279       .  A
C1485      O1488   1.265       .  A
C1485      C1533   1.467       .  S
Cd1486     O1493   2.310       .  S
Cd1486     O1492   2.361       .  S
Cd1486     O1490   2.401       .  S
Cd1486     O1488   2.412       .  S
C1489      O1493   1.260       .  A
C1489      C1647   1.442       .  S
C1494      C1822   1.561       .  S
C1494      C2087   1.534       .  S
C1494      C1500   1.579       .  S
C1494      C1498   1.549       .  S
C1495      C2086   1.534   1_554  S
C1495      H1502   1.086       .  S
C1495      C2088   1.352   1_554  D
C1496      C2298   1.455       .  S
C1496      C1497   1.529       .  S
C1496      C2087   1.352       .  D
C1497      C1501   1.518       .  S
C1497      C1499   1.498       .  S
C1497      H1503   1.104       .  S
C1498      H2096   1.080       .  S
C1498      C1499   1.358       .  D
C1499      C1633   1.442       .  S
C1500      H1505   1.084       .  S
C1500      C1501   1.402       .  D
C1501      C1545   1.517       .  S
H1504      C2090   1.080       .  S
O1506      C1509   1.256       .  A
O1506     Cd1511   2.448       .  S
C1507      O1516   1.263       .  A
C1507      O1512   1.266       .  A
O1508      C1514   1.276       .  A
O1508     Cd1511   2.552       .  S
C1509      O1517   1.276       .  A
C1510      O1515   1.277       .  A
C1510      O1513   1.255       .  A
C1510      C1758   1.490       .  S
Cd1511     O1518   2.488       .  S
Cd1511     O1517   2.484       .  S
Cd1511     O1516   2.206       .  S
Cd1511     O1512   2.386       .  S
Cd1511     O1515   2.549       .  S
Cd1511     O1513   2.461       .  S
C1514      O1518   1.261       .  A
C1514      C1521   1.501       .  S
C1519      C1520   1.539       .  S
C1519      C1525   1.534       .  S
C1519      C1523   1.553       .  S
C1519      C1619   1.567       .  S
C1520      H1527   1.086       .  S
C1520      C1521   1.370       .  D
C1521      C1522   1.565       .  S
C1522      C1526   1.564       .  S
C1522      C1524   1.552       .  S
C1522      H1528   1.110       .  S
C1523      H1529   1.078       .  S
C1523      C1524   1.365       .  D
C1524      C1538   1.520       .  S
C1525      H1530   1.079       .  S
C1525      C1526   1.387       .  D
C1531      C1532   1.535       .  S
C1531      C1537   1.543       .  S
C1531      C1535   1.558       .  S
C1532      C1533   1.337       .  D
C1533      C1534   1.543       .  S
C1534      C1538   1.559       .  S
C1534      C1536   1.525       .  S
C1534      H1540   1.110       .  S
C1535      H1541   1.085       .  S
C1535      C1536   1.385       .  D
C1536      C1732   1.490       .  S
C1537      H1542   1.085       .  S
C1537      C1538   1.383       .  D
C1543      C1544   1.541       .  S
C1543      C1549   1.527       .  S
C1543      C1547   1.537       .  S
C1544      H1551   1.080       .  S
C1544      C1545   1.399       .  D
C1545      C1546   1.543       .  S
C1546      C1550   1.573       .  S
C1546      C1548   1.553       .  S
C1546      H1552   1.109       .  S
C1547      H1553   1.087       .  S
C1547      C1548   1.353       .  D
C1549      H1554   1.078       .  S
C1549      C1550   1.363       .  D
C1550      C1593   1.567       .  S
O1555      C1558   1.273       .  A
O1555     Cd1560   2.211       .  S
C1556      O1565   1.276       .  A
C1556      O1561   1.262       .  A
C1556      C1644   1.455       .  S
O1557     Cd1560   2.400       .  S
C1558      O1566   1.269       .  A
C1558      C1581   1.396       .  S
C1559      O1564   1.280       .  A
C1559      O1562   1.260       .  A
C1559      C1718   1.442       .  S
Cd1560     O1566   2.363       .  S
Cd1560     O1564   2.432       .  S
Cd1560     O1562   2.309       .  S
C1563      O1567   1.265       .  A
C1568      C1569   1.548       .  S
C1568      C1574   1.579       .  S
C1568      C1572   1.534       .  S
C1569      H1576   1.080       .  S
C1569      C1570   1.358       .  D
C1570      C1711   1.442       .  S
C1570      C1571   1.498       .  S
C1571      C1575   1.518       .  S
C1571      C1573   1.529       .  S
C1571      H1577   1.104       .  S
C1572      H2170   1.086       .  S
C1572      C1573   1.352       .  D
C1573      C1632   1.455       .  S
C1574      H1579   1.084       .  S
C1574      C1575   1.402       .  D
C1575      C1624   1.517       .  S
H1578      C2164   1.086       .  S
O1580      C1583   1.256       .  A
O1580     Cd1585   2.447       .  S
C1581      O1590   1.263       .  A
C1581      O1586   1.266       .  A
O1582      C1588   1.277       .  A
O1582     Cd1585   2.548       .  S
C1583      O1591   1.276       .  A
C1584      O1589   1.276       .  A
C1584      O1587   1.261       .  A
C1584      C1598   1.501       .  S
Cd1585     O1592   2.460       .  S
Cd1585     O1591   2.483       .  S
Cd1585     O1590   2.206       .  S
Cd1585     O1586   2.387       .  S
Cd1585     O1589   2.551       .  S
Cd1585     O1587   2.487       .  S
C1588      O1592   1.255       .  A
C1588      C1684   1.490       .  S
C1593      C1594   1.553       .  S
C1593      C1599   1.534       .  S
C1593      C1597   1.539       .  S
C1594      H1601   1.078       .  S
C1594      C1595   1.365       .  D
C1595      C1596   1.552       .  S
C1595      C1607   1.520       .  S
C1596      C1600   1.564       .  S
C1596      C1598   1.565       .  S
C1596      H1602   1.110       .  S
C1597      H1603   1.086       .  S
C1597      C1598   1.370       .  D
C1599      H1604   1.079       .  S
C1599      C1600   1.387       .  D
C1605      C1611   1.535       .  S
C1605      C1617   1.591       .  S
C1606      H1613   1.085       .  S
C1606      C1607   1.383       .  D
C1607      C1608   1.559       .  S
C1608      C1612   1.543       .  S
C1608      C1610   1.525       .  S
C1608      H1614   1.110       .  S
C1609      H1615   1.085       .  S
C1609      C1610   1.385       .  D
C1610      C1662   1.490       .  S
C1611      H1616   1.087       .  S
C1617      C1618   1.527       .  S
C1617      C1623   1.541       .  S
C1617      C1621   1.537       .  S
C1618      H1625   1.078       .  S
C1618      C1619   1.363       .  D
C1619      C1620   1.573       .  S
C1620      C1624   1.543       .  S
C1620      C1622   1.553       .  S
C1620      H1626   1.109       .  S
C1621      H1627   1.087       .  S
C1621      C1622   1.353       .  D
C1623      H1628   1.080       .  S
C1623      C1624   1.399       .  D
O1629      C1632   1.262       .  A
C1630      O1639   1.269   1_554  A
C1630      O1635   1.273       .  A
C1630      C1657   1.396       .  S
O1631     Cd1634   2.401       .  S
C1632      O2232   1.276   1_554  A
C1633      O1638   1.280       .  A
C1633      O2228   1.260       .  A
Cd1634     O2231   2.361       .  S
Cd1634     O2227   2.212       .  S
Cd1634     O1638   2.433       .  S
Cd1634     O2228   2.310       .  S
O1635     Cd2226   2.212   1_554  S
O1636      C2225   1.260   1_554  A
O1636     Cd2226   2.310   1_554  S
C1637      O1641   1.265       .  A
O1639     Cd2226   2.361       .  S
O1640      C2224   1.276       .  A
C1642      C1643   1.534       .  S
C1642      C1648   1.579       .  S
C1642      C1646   1.549   1_565  S
C1643      H1650   1.086       .  S
C1643      C1644   1.352       .  D
C1644      C1645   1.529       .  S
C1645      C1649   1.518       .  S
C1645      C1647   1.498   1_565  S
C1645      H1651   1.104       .  S
C1646      H1652   1.080       .  S
C1646      C1647   1.358       .  D
C1648      H1653   1.084       .  S
C1648      C1649   1.402       .  D
C1649      C1693   1.517       .  S
O1654      C1657   1.266       .  A
O1654     Cd1659   2.386       .  S
C1655      O1664   1.276       .  A
C1655      O1660   1.256       .  A
O1656      C1662   1.277       .  A
O1656     Cd1659   2.549       .  S
C1657      O1665   1.263       .  A
C1658      O1663   1.276       .  A
C1658      O1661   1.261       .  A
C1658      C1669   1.501       .  S
Cd1659     O1666   2.461       .  S
Cd1659     O1665   2.206       .  S
Cd1659     O1664   2.484       .  S
Cd1659     O1660   2.448       .  S
Cd1659     O1663   2.552       .  S
Cd1659     O1661   2.488       .  S
C1662      O1666   1.255       .  A
C1667      C1668   1.539       .  S
C1667      C1673   1.534       .  S
C1667      C1671   1.553       .  S
C1667      C1767   1.567   1_565  S
C1668      H1675   1.086       .  S
C1668      C1669   1.370       .  D
C1669      C1670   1.565       .  S
C1670      C1674   1.564       .  S
C1670      C1672   1.552       .  S
C1670      H1676   1.110   1_554  S
C1671      H1677   1.078       .  S
C1671      C1672   1.365       .  D
C1672      C2278   1.520   1_554  S
C1673      H1678   1.079   1_565  S
C1673      C1674   1.387       .  D
C1674      C2012   1.561   1_554  S
C1679      C1680   1.535       .  S
C1679      C1691   1.591       .  S
C1680      H1687   1.087       .  S
C1681      C1682   1.543       .  S
C1682      C1686   1.559       .  S
C1682      C1684   1.525       .  S
C1682      H1688   1.110       .  S
C1683      H1689   1.085       .  S
C1683      C1684   1.385       .  D
C1685      H1690   1.085       .  S
C1685      C1686   1.383       .  D
C1686      C2264   1.520       .  S
C1691      C1692   1.541       .  S
C1691      C1697   1.527       .  S
C1691      C1695   1.537       .  S
C1692      H1699   1.080       .  S
C1692      C1693   1.399       .  D
C1693      C1694   1.543       .  S
C1694      C1698   1.573       .  S
C1694      C1696   1.553       .  S
C1694      H1700   1.109       .  S
C1695      H1701   1.087       .  S
C1695      C1696   1.353       .  D
C1697      H1702   1.078       .  S
C1697      C1698   1.363       .  D
C1698      C1741   1.567       .  S
O1703      C2298   1.262       .  A
C1704      O2305   1.269       .  A
C1704      O1709   1.273       .  A
C1704      C1731   1.396       .  S
O1705      C1711   1.280       .  A
O1705     Cd1708   2.432       .  S
C1706      O2295   1.262   1_554  A
C1706      O1714   1.276       .  A
C1706      C2088   1.455   1_554  S
C1707      O1712   1.279       .  A
C1707      O1710   1.265       .  A
C1707      C1760   1.467       .  S
Cd1708     O1715   2.309       .  S
Cd1708     O1713   2.363       .  S
Cd1708     O2301   2.211   1_554  S
Cd1708     O1712   2.400       .  S
Cd1708     O1710   2.412       .  S
O1709     Cd2300   2.211       .  S
C1711      O1715   1.260       .  A
O1713      C2296   1.269       .  A
C1716      C1717   1.548   1_545  S
C1716      C1722   1.579       .  S
C1716      C1720   1.534       .  S
C1717      H1724   1.080       .  S
C1717      C1718   1.358       .  D
C1718      C1719   1.498   1_565  S
C1719      C1723   1.518       .  S
C1719      C1721   1.529       .  S
C1719      H1725   1.104       .  S
C1720      H1726   1.086       .  S
C1720      C1721   1.352       .  D
C1722      H1727   1.084       .  S
C1722      C1723   1.402       .  D
C1723      C1772   1.517       .  S
O1728      C1731   1.266       .  A
O1728     Cd1733   2.387       .  S
C1729      O1738   1.276       .  A
C1729      O1734   1.256       .  A
O1730      C1736   1.276       .  A
O1730     Cd1733   2.551       .  S
C1731      O1739   1.263       .  A
C1732      O1737   1.277       .  A
C1732      O1735   1.255       .  A
Cd1733     O1740   2.487       .  S
Cd1733     O1739   2.206       .  S
Cd1733     O1738   2.483       .  S
Cd1733     O1734   2.447       .  S
Cd1733     O1737   2.548       .  S
Cd1733     O1735   2.460       .  S
C1736      O1740   1.261       .  A
C1736      C1746   1.501       .  S
C1741      C1742   1.553   1_565  S
C1741      C1747   1.534       .  S
C1741      C1745   1.539   1_565  S
C1742      H2341   1.078       .  S
C1742      C2335   1.365       .  D
C1743      C1744   1.552       .  S
C1743      C2334   1.365       .  D
C1743      C1755   1.520       .  S
C1744      C1748   1.564       .  S
C1744      C2338   1.565   1_554  S
C1744      H1750   1.110       .  S
C1745      H1751   1.086       .  S
C1745      C1746   1.370       .  D
C1746      C2336   1.565       .  S
C1747      H1752   1.079       .  S
C1747      C2340   1.387   1_565  D
C1748      C2339   1.387   1_545  D
H1749      C2334   1.078       .  S
C1753      C1754   1.543       .  S
C1753      C1759   1.535       .  S
C1753      C1757   1.558       .  S
C1754      H1761   1.085       .  S
C1754      C1755   1.383       .  D
C1755      C1756   1.559       .  S
C1756      C1760   1.543       .  S
C1756      C1758   1.525       .  S
C1756      H1762   1.110       .  S
C1757      H1763   1.085       .  S
C1757      C1758   1.385       .  D
C1759      C1760   1.337       .  D
C1765      C1766   1.527       .  S
C1765      C1771   1.541       .  S
C1765      C1769   1.537       .  S
C1766      H1773   1.078       .  S
C1766      C1767   1.363       .  D
C1767      C1768   1.573       .  S
C1768      C1772   1.543       .  S
C1768      C1770   1.553       .  S
C1768      H1774   1.109       .  S
C1769      H1775   1.087       .  S
C1769      C1770   1.353       .  D
C1771      H1776   1.080       .  S
C1771      C1772   1.399       .  D
O1777      C1780   1.273       .  A
C1778      O1783   1.262       .  A
C1778      C1940   1.455       .  S
O1779      C1785   1.279       .  A
O1779     Cd1782   2.400       .  S
C1780      O1788   1.269       .  A
C1780      C1803   1.396       .  S
C1781      O1786   1.280       .  A
C1781      C2014   1.442       .  S
Cd1782     O1789   2.412   1_556  S
Cd1782     O1787   2.454       .  S
Cd1782     O1786   2.432       .  S
C1785      O1789   1.265   1_556  A
C1785      C1834   1.467       .  S
C1790      C1791   1.548       .  S
C1790      C1796   1.579       .  S
C1790      C1794   1.534       .  S
C1790      C2118   1.561       .  S
C1791      H1798   1.080       .  S
C1791      C1792   1.358       .  D
C1792      C2007   1.442       .  S
C1792      C1793   1.498       .  S
C1793      C1797   1.518       .  S
C1793      C1795   1.529       .  S
C1793      H1799   1.104       .  S
C1794      H1800   1.086       .  S
C1794      C1795   1.352       .  D
C1795      C1926   1.456       .  S
C1796      H1801   1.084       .  S
C1796      C1797   1.402       .  D
C1797      C1846   1.517       .  S
O1802      C1805   1.256       .  A
O1802     Cd1807   2.447       .  S
C1803      O1812   1.263       .  A
C1803      O1808   1.266       .  A
O1804      C1810   1.277       .  A
O1804     Cd1807   2.548       .  S
C1805      O1813   1.276       .  A
C1805      C2362   1.474       .  S
C1806      O1811   1.276       .  A
C1806      O1809   1.261       .  A
C1806      C1820   1.501       .  S
Cd1807     O1814   2.460       .  S
Cd1807     O1813   2.483       .  S
Cd1807     O1812   2.207       .  S
Cd1807     O1808   2.387       .  S
Cd1807     O1811   2.551       .  S
Cd1807     O1809   2.487       .  S
C1810      O1814   1.255       .  A
C1810      C1980   1.490       .  S
C1815      C1816   1.553       .  S
C1815      C1821   1.534       .  S
C1815      C1819   1.539       .  S
C1815      C1920   1.567       .  S
C1816      H1823   1.078       .  S
C1816      C1817   1.365       .  D
C1817      C1818   1.552       .  S
C1818      C1822   1.564       .  S
C1818      C1820   1.565       .  S
C1818      H1824   1.110       .  S
C1819      H1825   1.086       .  S
C1819      C1820   1.370       .  D
C1821      H1826   1.079       .  S
C1821      C1822   1.387       .  D
C1827      C1828   1.543       .  S
C1827      C1833   1.535       .  S
C1827      C1831   1.558       .  S
C1827      C1839   1.591       .  S
C1828      H1835   1.085       .  S
C1828      C1829   1.383       .  D
C1829      C1830   1.559       .  S
C1830      C1834   1.543       .  S
C1830      C1832   1.525       .  S
C1830      H1836   1.110       .  S
C1831      H1837   1.085       .  S
C1831      C1832   1.385       .  D
C1832      C1954   1.490       .  S
C1833      H1838   1.087       .  S
C1833      C1834   1.337       .  D
C1839      C1840   1.527       .  S
C1839      C1845   1.541       .  S
C1839      C1843   1.537       .  S
C1840      H1847   1.078       .  S
C1840      C1841   1.363       .  D
C1841      C1842   1.573       .  S
C1841      C1889   1.567       .  S
C1842      C1846   1.543       .  S
C1842      C1844   1.553       .  S
C1842      H1848   1.109       .  S
C1843      H1849   1.087       .  S
C1843      C1844   1.353       .  D
C1844      C2321   1.474       .  S
C1845      H1850   1.080       .  S
C1845      C1846   1.399       .  D
C1852      O1857   1.273   1_554  A
C1852      C1877   1.396   1_554  S
O1853      C1859   1.279       .  A
O1853     Cd1856   2.402       .  S
C1854      O1862   1.276       .  A
C1855      O1860   1.280       .  A
C1855      O1858   1.260       .  A
C1855      C1943   1.442       .  S
Cd1856     O1863   2.412       .  S
Cd1856     O1862   2.454       .  S
Cd1856     O1861   2.361       .  S
Cd1856     O1860   2.433       .  S
Cd1856     O1858   2.310       .  S
C1859      O1863   1.265       .  A
C1859      C1903   1.467       .  S
C1864      C1865   1.534       .  S
C1864      C1870   1.579       .  S
C1864      C1868   1.549       .  S
C1864      C2192   1.561       .  S
C1865      H1872   1.086       .  S
C1865      C1866   1.352       .  D
C1866      C2002   1.455       .  S
C1866      C1867   1.529       .  S
C1867      C1871   1.518       .  S
C1867      C1869   1.498       .  S
C1867      H1873   1.104       .  S
C1868      H1874   1.080       .  S
C1868      C1869   1.358       .  D
C1869      C1933   1.442       .  S
C1870      H1875   1.084       .  S
C1870      C1871   1.402       .  D
C1871      C1915   1.517       .  S
O1876      C1879   1.256       .  A
O1876     Cd1881   2.448       .  S
C1877      O1886   1.263       .  A
C1877      O1882   1.266       .  A
O1878      C1884   1.276       .  A
O1878     Cd1881   2.552       .  S
C1879      O1887   1.276       .  A
C1879      C2288   1.475       .  S
C1880      O1885   1.277       .  A
C1880      O1883   1.255       .  A
C1880      C2054   1.490       .  S
Cd1881     O1888   2.488       .  S
Cd1881     O1887   2.484       .  S
Cd1881     O1886   2.206       .  S
Cd1881     O1882   2.386       .  S
Cd1881     O1885   2.549       .  S
Cd1881     O1883   2.461       .  S
C1884      O1888   1.261       .  A
C1884      C1891   1.501       .  S
C1889      C1890   1.538       .  S
C1889      C1895   1.534   1_556  S
C1889      C1893   1.553   1_556  S
C1890      H1897   1.086       .  S
C1890      C1891   1.370       .  D
C1892      C1896   1.564       .  S
C1892      C1894   1.552       .  S
C1892      H1898   1.110       .  S
C1893      H1899   1.078       .  S
C1894      C1908   1.520       .  S
C1895      H1900   1.079       .  S
C1896      C2160   1.561       .  S
C1901      C1902   1.535       .  S
C1901      C1907   1.543       .  S
C1901      C1905   1.558       .  S
C1901      C1913   1.591       .  S
C1902      H1909   1.087       .  S
C1902      C1903   1.337       .  D
C1903      C1904   1.543       .  S
C1904      C1908   1.559       .  S
C1904      C1906   1.525       .  S
C1904      H1910   1.110       .  S
C1905      H1911   1.085       .  S
C1905      C1906   1.385       .  D
C1906      C2028   1.490       .  S
C1907      H1912   1.085       .  S
C1907      C1908   1.383       .  D
C1913      C1914   1.541       .  S
C1913      C1919   1.527       .  S
C1913      C1917   1.537       .  S
C1914      H1921   1.080       .  S
C1914      C1915   1.399       .  D
C1915      C1916   1.543       .  S
C1916      C1920   1.573       .  S
C1916      C1918   1.553       .  S
C1916      H1922   1.109       .  S
C1917      H1923   1.087       .  S
C1917      C1918   1.353       .  D
C1918      C2247   1.475       .  S
C1919      H1924   1.078       .  S
C1919      C1920   1.363       .  D
O1925      C1928   1.273       .  A
O1925     Cd1930   2.212       .  S
C1926      O1935   1.276       .  A
C1926      O1931   1.262       .  A
O1927      C1933   1.280       .  A
O1927     Cd1930   2.433       .  S
C1928      O1936   1.269       .  A
C1928      C1951   1.396       .  S
C1929      O1934   1.279       .  A
C1929      O1932   1.265       .  A
C1929      C1977   1.467       .  S
Cd1930     O1937   2.310       .  S
Cd1930     O1936   2.361       .  S
Cd1930     O1935   2.455       .  S
Cd1930     O1931   2.319       .  S
Cd1930     O1934   2.402       .  S
Cd1930     O1932   2.412       .  S
C1933      O1937   1.260       .  A
C1938      C1939   1.534       .  S
C1938      C1944   1.579       .  S
C1938      C1942   1.549   1_545  S
C1938      C2340   1.561       .  S
C1939      C1940   1.352       .  D
C1940      C1941   1.529       .  S
C1941      C1945   1.518       .  S
C1941      C1943   1.498   1_545  S
C1941      H1947   1.104       .  S
C1942      H1948   1.080       .  S
C1942      C1943   1.358       .  D
C1944      H1949   1.084       .  S
C1944      C1945   1.402       .  D
C1945      C1989   1.517       .  S
O1950      C1953   1.256       .  A
O1950     Cd1955   2.448       .  S
C1951      O1960   1.263       .  A
C1951      O1956   1.266       .  A
O1952      C1958   1.276       .  A
O1952     Cd1955   2.552       .  S
C1953      O1961   1.276       .  A
C1953      C2140   1.475       .  S
C1954      O1959   1.277       .  A
C1954      O1957   1.255       .  A
Cd1955     O1962   2.488       .  S
Cd1955     O1961   2.484       .  S
Cd1955     O1960   2.206       .  S
Cd1955     O1956   2.386       .  S
Cd1955     O1959   2.549       .  S
Cd1955     O1957   2.461       .  S
C1958      O1962   1.261       .  A
C1958      C1965   1.501       .  S
C1963      C1964   1.538   1_565  S
C1963      C1969   1.534       .  S
C1963      C1967   1.553   1_565  S
C1963      C2063   1.567       .  S
C1964      H1971   1.086       .  S
C1964      C1965   1.370       .  D
C1965      C1966   1.565       .  S
C1966      C1970   1.564       .  S
C1966      C1968   1.552       .  S
C1966      H1972   1.110       .  S
C1967      H1973   1.078       .  S
C1967      C1968   1.365       .  D
C1968      C1982   1.520       .  S
C1969      H1974   1.079       .  S
C1969      C1970   1.387   1_565  D
C1970      C2308   1.561       .  S
C1975      C1976   1.535       .  S
C1975      C1981   1.543       .  S
C1975      C1979   1.558       .  S
C1975      C1987   1.591       .  S
C1976      H1983   1.087       .  S
C1976      C1977   1.337       .  D
C1977      C1978   1.543       .  S
C1978      C1982   1.559       .  S
C1978      C1980   1.525       .  S
C1978      H1984   1.110       .  S
C1979      H1985   1.085       .  S
C1979      C1980   1.385       .  D
C1981      H1986   1.085       .  S
C1981      C1982   1.383       .  D
C1987      C1988   1.541       .  S
C1987      C1993   1.527       .  S
C1987      C1991   1.537       .  S
C1988      H1995   1.080       .  S
C1988      C1989   1.399       .  D
C1989      C1990   1.543       .  S
C1990      C1994   1.573       .  S
C1990      C1992   1.553       .  S
C1990      H1996   1.109       .  S
C1991      H1997   1.087       .  S
C1991      C1992   1.353       .  D
C1992      C2101   1.475       .  S
C1993      H1998   1.078       .  S
C1993      C1994   1.363       .  D
C1994      C2037   1.567   1_545  S
O1999      C2002   1.262       .  A
O1999     Cd2004   2.319       .  S
C2000      O2009   1.269       .  A
C2000      O2005   1.273       .  A
C2000      C2027   1.396       .  S
O2001      C2007   1.280       .  A
O2001     Cd2004   2.432       .  S
C2002      O2010   1.276       .  A
C2003      O2008   1.279       .  A
C2003      O2006   1.265       .  A
C2003      C2056   1.467       .  S
Cd2004     O2011   2.309       .  S
Cd2004     O2010   2.454       .  S
Cd2004     O2009   2.363       .  S
Cd2004     O2005   2.211       .  S
Cd2004     O2008   2.400       .  S
Cd2004     O2006   2.412       .  S
C2007      O2011   1.260       .  A
C2012      C2013   1.548   1_565  S
C2012      C2018   1.579       .  S
C2013      C2014   1.358       .  D
C2014      C2015   1.498   1_545  S
C2015      C2019   1.518       .  S
C2015      C2017   1.529       .  S
C2015      H2021   1.104       .  S
C2016      H2022   1.086       .  S
C2018      H2023   1.084       .  S
C2018      C2019   1.402       .  D
C2019      C2068   1.517       .  S
O2024      C2027   1.266       .  A
O2024     Cd2029   2.387       .  S
C2025      O2034   1.276       .  A
C2025      O2030   1.256       .  A
C2025      C2214   1.474       .  S
O2026      C2032   1.276       .  A
O2026     Cd2029   2.551       .  S
C2027      O2035   1.263       .  A
C2028      O2033   1.277       .  A
C2028      O2031   1.255       .  A
Cd2029     O2036   2.487       .  S
Cd2029     O2035   2.206       .  S
Cd2029     O2034   2.483       .  S
Cd2029     O2030   2.447       .  S
Cd2029     O2033   2.548       .  S
Cd2029     O2031   2.461       .  S
C2032      O2036   1.261       .  A
C2032      C2042   1.501       .  S
C2037      C2038   1.553       .  S
C2037      C2043   1.534       .  S
C2037      C2041   1.539       .  S
C2038      H2045   1.078       .  S
C2038      C2039   1.365       .  D
C2039      C2040   1.552       .  S
C2039      C2051   1.520       .  S
C2040      C2044   1.564       .  S
C2040      C2042   1.565       .  S
C2040      H2046   1.110       .  S
C2041      H2047   1.086       .  S
C2041      C2042   1.370       .  D
C2043      H2048   1.079   1_565  S
C2043      C2044   1.387       .  D
C2044      C2234   1.561       .  S
C2049      C2050   1.543       .  S
C2049      C2055   1.535       .  S
C2049      C2053   1.558       .  S
C2049      C2061   1.591       .  S
C2050      H2057   1.085       .  S
C2050      C2051   1.383       .  D
C2051      C2052   1.559       .  S
C2052      C2056   1.543       .  S
C2052      C2054   1.525       .  S
C2052      H2058   1.110       .  S
C2053      H2059   1.085       .  S
C2053      C2054   1.385       .  D
C2055      H2060   1.087       .  S
C2055      C2056   1.337       .  D
C2061      C2062   1.527       .  S
C2061      C2067   1.541       .  S
C2061      C2065   1.537       .  S
C2062      H2069   1.078       .  S
C2062      C2063   1.363       .  D
C2063      C2064   1.573       .  S
C2064      C2068   1.543       .  S
C2064      C2066   1.553       .  S
C2064      H2070   1.109       .  S
C2065      H2071   1.087       .  S
C2065      C2066   1.353       .  D
C2066      C2175   1.474       .  S
C2067      H2072   1.080       .  S
C2067      C2068   1.399       .  D
O2073      C2076   1.273       .  A
O2073     Cd2078   2.212       .  S
C2074      O2083   1.276       .  A
C2074      O2079   1.262       .  A
C2074      C2313   1.456       .  S
O2075      C2081   1.280       .  A
O2075     Cd2078   2.433       .  S
C2076      O2084   1.269       .  A
C2076      C2099   1.396       .  S
C2077      O2082   1.279       .  A
C2077      O2080   1.265       .  A
C2077      C2125   1.467       .  S
Cd2078     O2085   2.310       .  S
Cd2078     O2084   2.361       .  S
Cd2078     O2082   2.401       .  S
Cd2078     O2080   2.412       .  S
C2081      O2085   1.260       .  A
C2081      C2239   1.442       .  S
C2086      C2092   1.579       .  S
C2086      C2090   1.549       .  S
C2087      H2094   1.086       .  S
C2088      C2089   1.529       .  S
C2089      C2093   1.518       .  S
C2089      C2091   1.498       .  S
C2089      H2095   1.104       .  S
C2090      C2091   1.358       .  D
C2091      C2225   1.442       .  S
C2092      H2097   1.084       .  S
C2092      C2093   1.402       .  D
C2093      C2137   1.517       .  S
O2098      C2101   1.256       .  A
O2098     Cd2103   2.448       .  S
C2099      O2108   1.263       .  A
C2099      O2104   1.266       .  A
O2100      C2106   1.276       .  A
O2100     Cd2103   2.552       .  S
C2101      O2109   1.276       .  A
C2102      O2107   1.277       .  A
C2102      O2105   1.255       .  A
C2102      C2350   1.490       .  S
Cd2103     O2110   2.488       .  S
Cd2103     O2109   2.484       .  S
Cd2103     O2108   2.206       .  S
Cd2103     O2104   2.386       .  S
Cd2103     O2107   2.549       .  S
Cd2103     O2105   2.461       .  S
C2106      O2110   1.261       .  A
C2106      C2113   1.501       .  S
C2111      C2112   1.539       .  S
C2111      C2117   1.534       .  S
C2111      C2115   1.553       .  S
C2111      C2211   1.567       .  S
C2112      H2119   1.086       .  S
C2112      C2113   1.370       .  D
C2113      C2114   1.565       .  S
C2114      C2118   1.564       .  S
C2114      C2116   1.552       .  S
C2114      H2120   1.110       .  S
C2115      H2121   1.078       .  S
C2115      C2116   1.365       .  D
C2116      C2130   1.520       .  S
C2117      H2122   1.079       .  S
C2117      C2118   1.387       .  D
C2123      C2124   1.535       .  S
C2123      C2129   1.543       .  S
C2123      C2127   1.558       .  S
C2124      C2125   1.337       .  D
C2125      C2126   1.543       .  S
C2126      C2130   1.559       .  S
C2126      C2128   1.525       .  S
C2126      H2132   1.110       .  S
C2127      H2133   1.085       .  S
C2127      C2128   1.385       .  D
C2128      C2324   1.490       .  S
C2129      H2134   1.085       .  S
C2129      C2130   1.383       .  D
C2135      C2136   1.541       .  S
C2135      C2141   1.527       .  S
C2135      C2139   1.537       .  S
C2136      H2143   1.080       .  S
C2136      C2137   1.399       .  D
C2137      C2138   1.543       .  S
C2138      C2142   1.573       .  S
C2138      C2140   1.553       .  S
C2138      H2144   1.109       .  S
C2139      H2145   1.087       .  S
C2139      C2140   1.353       .  D
C2141      H2146   1.078       .  S
C2141      C2142   1.363       .  D
C2142      C2185   1.567       .  S
O2147      C2150   1.273       .  A
O2147     Cd2152   2.211       .  S
C2148      O2157   1.276       .  A
C2148      O2153   1.262       .  A
C2148      C2236   1.455       .  S
O2149     Cd2152   2.400       .  S
C2150      O2158   1.269       .  A
C2150      C2173   1.396       .  S
C2151      O2156   1.280       .  A
C2151      O2154   1.260       .  A
C2151      C2310   1.442       .  S
Cd2152     O2158   2.363       .  S
Cd2152     O2156   2.432       .  S
Cd2152     O2154   2.309       .  S
C2155      O2159   1.265       .  A
C2160      C2161   1.548       .  S
C2160      C2166   1.579       .  S
C2160      C2164   1.534       .  S
C2161      H2168   1.080       .  S
C2161      C2162   1.358       .  D
C2162      C2303   1.442       .  S
C2162      C2163   1.498       .  S
C2163      C2167   1.518       .  S
C2163      C2165   1.529       .  S
C2163      H2169   1.104       .  S
C2164      C2165   1.352       .  D
C2165      C2224   1.455       .  S
C2166      H2171   1.084       .  S
C2166      C2167   1.402       .  D
C2167      C2216   1.517       .  S
O2172      C2175   1.256       .  A
O2172     Cd2177   2.447       .  S
C2173      O2182   1.263       .  A
C2173      O2178   1.266       .  A
O2174      C2180   1.277       .  A
O2174     Cd2177   2.548       .  S
C2175      O2183   1.276       .  A
C2176      O2181   1.276       .  A
C2176      O2179   1.261       .  A
C2176      C2190   1.501       .  S
Cd2177     O2184   2.460       .  S
Cd2177     O2183   2.483       .  S
Cd2177     O2182   2.206       .  S
Cd2177     O2178   2.387       .  S
Cd2177     O2181   2.551       .  S
Cd2177     O2179   2.487       .  S
C2180      O2184   1.255       .  A
C2180      C2276   1.490       .  S
C2185      C2186   1.553       .  S
C2185      C2191   1.534       .  S
C2185      C2189   1.539       .  S
C2186      H2193   1.078       .  S
C2186      C2187   1.365       .  D
C2187      C2188   1.552       .  S
C2187      C2199   1.520       .  S
C2188      C2192   1.564       .  S
C2188      C2190   1.565       .  S
C2188      H2194   1.110       .  S
C2189      H2195   1.086       .  S
C2189      C2190   1.370       .  D
C2191      H2196   1.079       .  S
C2191      C2192   1.387       .  D
C2197      C2203   1.535       .  S
C2197      C2209   1.591       .  S
C2198      H2205   1.085       .  S
C2198      C2199   1.383       .  D
C2199      C2200   1.559       .  S
C2200      C2204   1.543       .  S
C2200      C2202   1.525       .  S
C2200      H2206   1.110       .  S
C2201      H2207   1.085       .  S
C2201      C2202   1.385       .  D
C2202      C2254   1.490       .  S
C2203      H2208   1.087       .  S
C2209      C2210   1.527       .  S
C2209      C2215   1.541       .  S
C2209      C2213   1.537       .  S
C2210      H2217   1.078       .  S
C2210      C2211   1.363       .  D
C2211      C2212   1.573       .  S
C2212      C2216   1.543       .  S
C2212      C2214   1.553       .  S
C2212      H2218   1.109       .  S
C2213      H2219   1.087       .  S
C2213      C2214   1.353       .  D
C2215      H2220   1.080       .  S
C2215      C2216   1.399       .  D
O2221      C2224   1.262       .  A
C2222      O2231   1.269       .  A
C2222      O2227   1.273       .  A
C2222      C2249   1.396       .  S
O2223     Cd2226   2.401       .  S
C2225      O2230   1.280       .  A
Cd2226     O2230   2.433       .  S
C2229      O2233   1.265   1_556  A
C2234      C2235   1.534       .  S
C2234      C2240   1.579       .  S
C2234      C2238   1.549   1_565  S
C2235      H2242   1.086       .  S
C2235      C2236   1.352       .  D
C2236      C2237   1.529       .  S
C2237      C2241   1.518       .  S
C2237      C2239   1.498   1_565  S
C2237      H2243   1.104       .  S
C2238      H2244   1.080       .  S
C2238      C2239   1.358       .  D
C2240      H2245   1.084       .  S
C2240      C2241   1.402       .  D
C2241      C2285   1.517       .  S
O2246      C2249   1.266       .  A
O2246     Cd2251   2.386       .  S
C2247      O2256   1.276       .  A
C2247      O2252   1.256       .  A
O2248      C2254   1.277       .  A
O2248     Cd2251   2.549       .  S
C2249      O2257   1.263       .  A
C2250      O2255   1.276       .  A
C2250      O2253   1.261       .  A
C2250      C2261   1.501       .  S
Cd2251     O2258   2.461       .  S
Cd2251     O2257   2.206       .  S
Cd2251     O2256   2.484       .  S
Cd2251     O2252   2.448       .  S
Cd2251     O2255   2.552       .  S
Cd2251     O2253   2.488       .  S
C2254      O2258   1.255       .  A
C2259      C2260   1.539       .  S
C2259      C2265   1.534       .  S
C2259      C2263   1.553       .  S
C2259      C2359   1.567   1_565  S
C2260      H2267   1.086       .  S
C2260      C2261   1.370       .  D
C2261      C2262   1.565       .  S
C2262      C2266   1.564       .  S
C2262      C2264   1.552       .  S
C2262      H2268   1.110       .  S
C2263      H2269   1.078       .  S
C2263      C2264   1.365       .  D
C2265      H2270   1.078   1_565  S
C2265      C2266   1.387       .  D
C2271      C2272   1.535       .  S
C2271      C2283   1.591       .  S
C2272      H2279   1.087       .  S
C2273      C2274   1.543       .  S
C2274      C2278   1.559       .  S
C2274      C2276   1.525       .  S
C2274      H2280   1.110       .  S
C2275      H2281   1.085       .  S
C2275      C2276   1.385       .  D
C2277      H2282   1.085       .  S
C2277      C2278   1.383       .  D
C2283      C2284   1.541       .  S
C2283      C2289   1.527       .  S
C2283      C2287   1.537       .  S
C2284      H2291   1.080       .  S
C2284      C2285   1.399       .  D
C2285      C2286   1.543       .  S
C2286      C2290   1.573       .  S
C2286      C2288   1.553       .  S
C2286      H2292   1.109       .  S
C2287      H2293   1.087       .  S
C2287      C2288   1.353       .  D
C2289      H2294   1.078       .  S
C2289      C2290   1.363       .  D
C2290      C2333   1.567       .  S
C2296      O2301   1.273   1_554  A
C2296      C2323   1.396   1_554  S
O2297      C2303   1.280       .  A
O2297     Cd2300   2.432       .  S
C2298      O2306   1.276       .  A
C2299      O2304   1.279       .  A
C2299      O2302   1.265       .  A
C2299      C2352   1.467       .  S
Cd2300     O2307   2.309       .  S
Cd2300     O2305   2.363       .  S
Cd2300     O2304   2.400       .  S
Cd2300     O2302   2.412       .  S
C2303      O2307   1.260       .  A
C2308      C2309   1.548   1_545  S
C2308      C2314   1.579       .  S
C2308      C2312   1.534       .  S
C2309      H2316   1.080       .  S
C2309      C2310   1.358       .  D
C2310      C2311   1.498   1_565  S
C2311      C2315   1.518       .  S
C2311      C2313   1.529       .  S
C2311      H2317   1.104       .  S
C2312      H2318   1.086       .  S
C2312      C2313   1.352       .  D
C2314      H2319   1.084       .  S
C2314      C2315   1.402       .  D
C2315      C2364   1.517       .  S
O2320      C2323   1.266       .  A
O2320     Cd2325   2.387       .  S
C2321      O2330   1.276       .  A
C2321      O2326   1.256       .  A
O2322      C2328   1.276       .  A
O2322     Cd2325   2.551       .  S
C2323      O2331   1.263       .  A
C2324      O2329   1.277       .  A
C2324      O2327   1.255       .  A
Cd2325     O2332   2.487       .  S
Cd2325     O2331   2.206       .  S
Cd2325     O2330   2.483       .  S
Cd2325     O2326   2.447       .  S
Cd2325     O2329   2.548       .  S
Cd2325     O2327   2.460       .  S
C2328      O2332   1.261       .  A
C2328      C2338   1.501       .  S
C2333      C2334   1.553   1_566  S
C2333      C2339   1.534   1_556  S
C2333      C2337   1.539   1_565  S
C2335      C2336   1.552       .  S
C2335      C2347   1.520       .  S
C2336      C2340   1.564       .  S
C2336      H2342   1.110       .  S
C2337      H2343   1.086       .  S
C2337      C2338   1.370       .  D
C2339      H2344   1.079       .  S
C2345      C2346   1.543       .  S
C2345      C2351   1.535       .  S
C2345      C2349   1.558       .  S
C2346      H2353   1.085       .  S
C2346      C2347   1.383       .  D
C2347      C2348   1.559       .  S
C2348      C2352   1.543       .  S
C2348      C2350   1.525       .  S
C2348      H2354   1.110       .  S
C2349      H2355   1.085       .  S
C2349      C2350   1.385       .  D
C2351      C2352   1.337       .  D
C2357      C2358   1.527       .  S
C2357      C2363   1.541       .  S
C2357      C2361   1.537       .  S
C2358      H2365   1.078       .  S
C2358      C2359   1.363       .  D
C2359      C2360   1.573       .  S
C2360      C2364   1.543       .  S
C2360      C2362   1.553       .  S
C2360      H2366   1.109       .  S
C2361      H2367   1.087       .  S
C2361      C2362   1.353       .  D
C2363      H2368   1.080       .  S
C2363      C2364   1.399       .  D
