geometry optimzed in LAMMPS
_audit_creation_date              2020-11-30 
_audit_creation_method            'lammps2cif' 
_symmetry_space_group_name_H-M    'P1' 
_symmetry_Int_Tables_number       1 
_symmetry_cell_setting            triclinic 
loop_ 
_symmetry_equiv_pos_as_xyz 
  x,y,z 
_cell_length_a                    32.97016033 
_cell_length_b                    33.896706987725366 
_cell_length_c                    26.163220349517566 
_cell_angle_alpha                 89.9984921930857 
_cell_angle_beta                  89.979101001793 
_cell_angle_gamma                 89.99695958045344 
loop_ 
_atom_site_label 
_atom_site_type_symbol 
_atom_site_fract_x 
_atom_site_fract_y 
_atom_site_fract_z 
_atom_site_charge 
N1          N  0.07898189  0.29099429  0.35495282    -0.27800
N2          N  0.06522504  0.32134644  0.32846979    -0.35600
C3          C  0.04372006  0.34494332  0.35948518     0.00600
C4          C  0.04348950  0.32871128  0.40809399     0.06600
C5          C  0.06618522  0.29437337  0.40377375    -0.06500
H6          H  0.02761298  0.37091720  0.34668269     0.07300
H7          H  0.07223610  0.27299074  0.43350495     0.08500
Cu8        Cu  0.07045768  0.32653646  0.24982372     0.44200
Cu9        Cu  0.11284982  0.24637392  0.32069053     0.42000
Cu10       Cu  0.11278911  0.24632352  0.17893082     0.43900
N11         N  0.06516511  0.32130364  0.17119316    -0.35200
N12         N  0.07890413  0.29094099  0.14470425    -0.29400
C13         C  0.06609492  0.29431557  0.09589860    -0.05500
C14         C  0.04340800  0.32865990  0.09159455     0.06700
C15         C  0.04365684  0.34490010  0.14019802     0.00500
H16         H  0.07214034  0.27293179  0.06616508     0.08100
H17         H  0.02757413  0.37088824  0.15300938     0.07200
N18         N  0.14679613  0.20823447  0.22446750    -0.36600
N19         N  0.14682080  0.20825801  0.27512958    -0.28800
C20         C  0.17157534  0.17941019  0.29179114    -0.04000
C21         C  0.18804675  0.16068502  0.24978992     0.04600
C22         C  0.17153371  0.17936841  0.20779459     0.02700
H23         H  0.17636008  0.17193773  0.33154166     0.07800
H24         H  0.17628101  0.17185831  0.16805018     0.06600
C25         C  0.41370633  0.55353731  0.99986868     0.86000
C26         C  0.38696487  0.56219383  0.45319176    -0.54200
C27         C  0.36963134  0.59882331  0.45279276     0.08900
C28         C  0.38075306  0.62398632  0.99988502     0.19900
C29         C  0.44468892  0.58790149  0.99987054    -0.55000
C30         C  0.42730987  0.62440367  0.99988079     0.09000
C31         C  0.38694899  0.56218352  0.04655692    -0.54500
C32         C  0.36961574  0.59881213  0.04697256     0.09600
H33         H  0.38297304  0.54102904  0.42247380     0.14100
H34         H  0.36735075  0.65400474  0.99989233    -0.00100
H35         H  0.47739265  0.58503341  0.99986938     0.14400
H36         H  0.38295168  0.54101575  0.07727212     0.14200
C37         C  0.47602516  0.38867241  0.49984917     0.86000
C38         C  0.50280354  0.38003701  0.45317579    -0.54200
C39         C  0.02013702  0.34340816  0.45275847     0.08900
C40         C  0.50897806  0.31822324  0.49982748     0.19900
C41         C  0.44504192  0.35430847  0.99980884    -0.55000
C42         C  0.46242131  0.31780612  0.49979467     0.09000
C43         C  0.50274543  0.38000521  0.04654138    -0.54500
C44         C  0.02007830  0.34337538  0.04693813     0.09600
H45         H  0.50681363  0.40121076  0.42246992     0.14100
H46         H  0.02238045  0.28820417  0.99981713    -0.00100
H47         H  0.41234077  0.35717624  0.99978088     0.13400
H48         H  0.50672430  0.40116210  0.07726596     0.14200
N49         N  0.31077987  0.65124628  0.35503986    -0.27800
N50         N  0.32453566  0.62089368  0.32854442    -0.35600
C51         C  0.34605128  0.59730019  0.35953585     0.00600
C52         C  0.34628895  0.61353255  0.40814355     0.06600
C53         C  0.32358730  0.64786784  0.40384565    -0.06500
H54         H  0.36214954  0.57132592  0.34671975     0.07300
H55         H  0.31753293  0.66924835  0.43358749     0.08500
Cu56       Cu  0.31927286  0.61567240  0.24990946     0.44200
Cu57       Cu  0.27688674  0.69586488  0.32082023     0.42000
Cu58       Cu  0.27693511  0.69585566  0.17906064     0.43900
N59         N  0.32453556  0.62087445  0.17126771    -0.35200
N60         N  0.31079544  0.65123671  0.14479124    -0.29400
C61         C  0.32359452  0.64786101  0.09597178    -0.05500
C62         C  0.34627553  0.61351517  0.09164405     0.06700
C63         C  0.34603397  0.59727430  0.14024891     0.00500
H64         H  0.31755137  0.66925148  0.06624291     0.08100
H65         H  0.36212366  0.57128971  0.15304508     0.07200
N66         N  0.24293346  0.73395890  0.22459702    -0.36600
N67         N  0.24291067  0.73396719  0.27525913    -0.28800
C68         C  0.21815624  0.76282890  0.29190734    -0.04000
C69         C  0.20168414  0.78152462  0.24989435     0.04600
C70         C  0.21819621  0.76281148  0.20791068     0.02700
H71         H  0.21337101  0.77032908  0.33164888     0.07800
H72         H  0.21344958  0.77029384  0.16815763     0.06600
N73         N  0.06075965  0.79100491  0.39475478    -0.27800
N74         N  0.07450345  0.82136303  0.42123221    -0.35600
C75         C  0.09600618  0.84495923  0.39021435     0.00600
C76         C  0.09624815  0.82872048  0.34160999     0.06600
C77         C  0.07356154  0.79438006  0.34593632    -0.06500
H78         H  0.11210194  0.87093974  0.40301250     0.07300
H79         H  0.06751867  0.77299084  0.31620741     0.08500
Cu80       Cu  0.06925060  0.82656242  0.49987571     0.44200
Cu81       Cu  0.02689993  0.74638278  0.42901904     0.42000
Cu82       Cu  0.02693023  0.74633777  0.07077237     0.43900
N83         N  0.07452886  0.82133183  0.07850918    -0.35200
N84         N  0.06079698  0.79096607  0.10499787    -0.29400
C85         C  0.07360428  0.79434131  0.15380385    -0.05500
C86         C  0.09628196  0.82868890  0.15810900     0.06700
C87         C  0.09602961  0.84493078  0.10950538     0.00500
H88         H  0.06756731  0.77295302  0.18353657     0.08100
H89         H  0.11210926  0.87091918  0.09669352     0.07200
N90         N  0.49294253  0.70823844  0.02523136    -0.36600
N91         N  0.49292924  0.70826226  0.47456944    -0.28800
C92         C  0.46818333  0.67941327  0.45789852    -0.04000
C93         C  0.45170610  0.66068604  0.49989524     0.04600
C94         C  0.46820620  0.67937024  0.04189560     0.02700
H95         H  0.46340747  0.67194446  0.41815258     0.07800
H96         H  0.46344799  0.67186032  0.08164284     0.06600
C97         C  0.16369465  0.88867970  0.24983235     0.86000
C98         C  0.13693521  0.88004136  0.29652203    -0.54200
C99         C  0.11959611  0.84341679  0.29694124     0.08900
C100        C  0.13073470  0.81823732  0.24985985     0.19900
C101        C  0.19467348  0.85430953  0.24984604    -0.55000
C102        C  0.17729110  0.81781104  0.24986285     0.09000
C103        C  0.13695303  0.88002605  0.20315626    -0.54500
C104        C  0.11961863  0.84339861  0.20276099     0.09600
H105        H  0.13293989  0.90121123  0.32723559     0.14100
H106        H  0.11732996  0.78822091  0.24987200    -0.00100
H107        H  0.22737850  0.85717100  0.24986193     0.14400
H108        H  0.13296429  0.90118898  0.17243776     0.14200
C109        C  0.22603658  0.05353011  0.24978132     0.86000
C110        C  0.25279909  0.06217313  0.29644258    -0.54200
C111        C  0.27013375  0.09880069  0.29683963     0.08900
C112        C  0.25899627  0.12397268  0.24975915     0.19900
C113        C  0.19505772  0.08790022  0.24980575    -0.55000
C114        C  0.21243990  0.12439871  0.24979292     0.09000
C115        C  0.25277506  0.06217940  0.20307696    -0.54500
C116        C  0.27011354  0.09880390  0.20265940     0.09600
H117        H  0.25680057  0.04100378  0.32715261     0.14100
H118        H  0.27240074  0.15398887  0.24974999    -0.00100
H119        H  0.16235202  0.08503848  0.24981877     0.14400
H120        H  0.25675786  0.04101548  0.17235403     0.14200
N121        N  0.32897963  0.15122289  0.39458966    -0.27800
N122        N  0.31523129  0.12086707  0.42108493    -0.35600
C123        C  0.29372404  0.09727120  0.39009223     0.00600
C124        C  0.29348259  0.11350447  0.34148458     0.06600
C125        C  0.31617453  0.14784367  0.34578312    -0.06500
H126        H  0.27762749  0.07129374  0.40291022     0.07300
H127        H  0.32222001  0.16922734  0.31604375     0.08500
Cu128      Cu  0.32047979  0.11564839  0.49972273     0.44200
Cu129      Cu  0.36285398  0.19585265  0.42880812     0.42000
Cu130      Cu  0.36277528  0.19584895  0.07056148     0.43900
N131        N  0.31519718  0.12085944  0.07836179    -0.35200
N132        N  0.32892395  0.15122772  0.10483267    -0.29400
C133        C  0.31612025  0.14785601  0.15365056    -0.05500
C134        C  0.29344880  0.11350675  0.15798358     0.06700
C135        C  0.29370162  0.09725947  0.10938311     0.00500
H136        H  0.32215449  0.16925020  0.18337341     0.08100
H137        H  0.27762364  0.07126823  0.09659137     0.07200
N138        N  0.39677722  0.23395609  0.02503554    -0.36600
N139        N  0.39681132  0.23396454  0.47437353    -0.28800
C140        C  0.42156521  0.26282790  0.45773344    -0.04000
C141        C  0.43802484  0.28152393  0.49975194     0.04600
C142        C  0.42150635  0.26280905  0.04172998     0.02700
H143        H  0.42636116  0.27032737  0.41799146     0.07800
H144        H  0.42624493  0.27028884  0.08148432     0.06600
C145        C  0.16788118  0.00260910  0.24984992    -0.09600
C146        C  0.20975894  0.01090910  0.24979051     0.06600
C147        C  0.23671576  0.97827061  0.24973586    -0.03400
C148        C  0.22185040  0.93960032  0.24974390    -0.07900
C149        C  0.17997229  0.93130075  0.24981272     0.05700
C150        C  0.15301548  0.96393924  0.24985348    -0.02900
Br151      Br  0.09484311  0.95859826  0.24991036    -0.02600
H152        H  0.14553856  0.02581234  0.24989635     0.09600
H153        H  0.24419126  0.91639919  0.24968407     0.07600
Br154      Br  0.29488813  0.98361161  0.24964194    -0.03000
C155        C  0.47185513  0.50260361  0.99985729    -0.09600
C156        C  0.42997804  0.51091253  0.99986484     0.06600
C157        C  0.40301667  0.47828023  0.49987990    -0.03400
C158        C  0.41787645  0.43960619  0.49988070    -0.07900
C159        C  0.45975349  0.43129726  0.99986363     0.05700
C160        C  0.48671487  0.46392951  0.99986263    -0.02900
Br161      Br  0.04488653  0.45857522  0.99987377    -0.02600
H162        H  0.49419739  0.52579801  0.99984966     0.09600
H163        H  0.39553411  0.41641186  0.49990188     0.07600
Br164      Br  0.34484499  0.48363442  0.49990650    -0.03000
N165        N  0.07898197  0.29099433  0.85495281    -0.27800
N166        N  0.06522507  0.32134641  0.82846977    -0.35600
C167        C  0.04371983  0.34494368  0.85948501     0.00600
C168        C  0.04348951  0.32871131  0.90809400     0.06600
C169        C  0.06618534  0.29437320  0.90377410    -0.06500
H170        H  0.02761395  0.37091554  0.84668350     0.07300
H171        H  0.07223586  0.27299191  0.93350355     0.08500
Cu172      Cu  0.07045766  0.32653642  0.74982374     0.44200
Cu173      Cu  0.11284996  0.24637401  0.82069062     0.42000
Cu174      Cu  0.11278913  0.24632357  0.67893087     0.43900
N175        N  0.06516512  0.32130358  0.67119318    -0.35200
N176        N  0.07890417  0.29094097  0.64470422    -0.29400
C177        C  0.06609488  0.29431588  0.59589904    -0.05500
C178        C  0.04340806  0.32865981  0.59159450     0.06700
C179        C  0.04365654  0.34490053  0.64019826     0.00500
H180        H  0.07214082  0.27293039  0.56616316     0.08100
H181        H  0.02757538  0.37088611  0.65300836     0.07200
N182        N  0.14679612  0.20823448  0.72446752    -0.36600
N183        N  0.14682084  0.20825804  0.77512961    -0.28800
C184        C  0.17157538  0.17941018  0.79179127    -0.04000
C185        C  0.18804671  0.16068501  0.74978987     0.04600
C186        C  0.17153363  0.17936845  0.70779480     0.02700
H187        H  0.17636008  0.17193784  0.83154112     0.07800
H188        H  0.17628101  0.17185814  0.66804928     0.06600
C189        C  0.41370624  0.55353729  0.49986871     0.86000
C190        C  0.38696490  0.56219383  0.95319171    -0.54200
C191        C  0.36963137  0.59882333  0.95279276     0.08900
C192        C  0.38075308  0.62398625  0.49988501     0.19900
C193        C  0.44468935  0.58790142  0.49987052    -0.55000
C194        C  0.42730980  0.62440370  0.49988076     0.09000
C195        C  0.38694901  0.56218369  0.54655669    -0.54500
C196        C  0.36961572  0.59881213  0.54697260     0.09600
H197        H  0.38297310  0.54102919  0.92247395     0.14100
H198        H  0.36735066  0.65400496  0.49989230    -0.00100
H199        H  0.47739066  0.58503368  0.49986937     0.14400
H200        H  0.38295152  0.54101511  0.57727312     0.14200
C201        C  0.47602515  0.38867240  0.99984913     0.86000
C202        C  0.50280351  0.38003703  0.95317578    -0.54200
C203        C  0.02013702  0.34340816  0.95275845     0.08900
C204        C  0.50897797  0.31822342  0.99982744     0.19900
C205        C  0.44504204  0.35430844  0.49980888    -0.55000
C206        C  0.46242131  0.31780609  0.99979462     0.09000
C207        C  0.50274544  0.38000511  0.54654127    -0.54500
C208        C  0.02007833  0.34337542  0.54693817     0.09600
H209        H  0.50681361  0.40121078  0.92246992     0.14100
H210        H  0.02238020  0.28820478  0.49981719    -0.00100
H211        H  0.41234028  0.35717634  0.49978091     0.13400
H212        H  0.50672442  0.40116259  0.57726669     0.14200
N213        N  0.31077987  0.65124626  0.85503984    -0.27800
N214        N  0.32453568  0.62089365  0.82854441    -0.35600
C215        C  0.34605114  0.59730050  0.85953596     0.00600
C216        C  0.34628901  0.61353254  0.90814349     0.06600
C217        C  0.32358730  0.64786795  0.90384577    -0.06500
H218        H  0.36215038  0.57132462  0.84671908     0.07300
H219        H  0.31753307  0.66924794  0.93358687     0.08500
Cu220      Cu  0.31927280  0.61567236  0.74990943     0.44200
Cu221      Cu  0.27688669  0.69586486  0.82082026     0.42000
Cu222      Cu  0.27693517  0.69585569  0.67906070     0.43900
N223        N  0.32453553  0.62087444  0.67126772    -0.35200
N224        N  0.31079544  0.65123672  0.64479130    -0.29400
C225        C  0.32359446  0.64786127  0.59597147    -0.05500
C226        C  0.34627554  0.61351516  0.59164409     0.06700
C227        C  0.34603388  0.59727438  0.64024887     0.00500
H228        H  0.31755170  0.66925047  0.56624437     0.08100
H229        H  0.36212381  0.57128937  0.65304521     0.07200
N230        N  0.24293344  0.73395891  0.72459706    -0.36600
N231        N  0.24291062  0.73396720  0.77525918    -0.28800
C232        C  0.21815620  0.76282885  0.79190715    -0.04000
C233        C  0.20168410  0.78152462  0.74989437     0.04600
C234        C  0.21819620  0.76281147  0.70791077     0.02700
H235        H  0.21337082  0.77032925  0.83164988     0.07800
H236        H  0.21344954  0.77029391  0.66815729     0.06600
N237        N  0.06075963  0.79100490  0.89475482    -0.27800
N238        N  0.07450341  0.82136297  0.92123223    -0.35600
C239        C  0.09600657  0.84495986  0.89021462     0.00600
C240        C  0.09624812  0.82872047  0.84160994     0.06600
C241        C  0.07356146  0.79437980  0.84593592    -0.06500
H242        H  0.11210016  0.87093684  0.90301100     0.07300
H243        H  0.06751904  0.77299221  0.81620916     0.08500
Cu244      Cu  0.06925060  0.82656244  0.99987571     0.44200
Cu245      Cu  0.02689990  0.74638278  0.92901900     0.42000
Cu246      Cu  0.02693025  0.74633772  0.57077241     0.43900
N247        N  0.07452881  0.82133186  0.57850919    -0.35200
N248        N  0.06079695  0.79096609  0.60499791    -0.29400
C249        C  0.07360430  0.79434154  0.65380358    -0.05500
C250        C  0.09628191  0.82868893  0.65810900     0.06700
C251        C  0.09602954  0.84493082  0.60950536     0.00500
H252        H  0.06756704  0.77295215  0.68353780     0.08100
H253        H  0.11210924  0.87091928  0.59669347     0.07200
N254        N  0.49294259  0.70823841  0.52523140    -0.36600
N255        N  0.49292917  0.70826225  0.97456935    -0.28800
C256        C  0.46818340  0.67941343  0.95789928    -0.04000
C257        C  0.45170609  0.66068606  0.99989518     0.04600
C258        C  0.46820619  0.67937015  0.54189587     0.02700
H259        H  0.46340703  0.67194382  0.91814889     0.07800
H260        H  0.46344810  0.67186050  0.58164160     0.06600
C261        C  0.16369462  0.88867972  0.74983229     0.86000
C262        C  0.13693518  0.88004141  0.79652206    -0.54200
C263        C  0.11959607  0.84341677  0.79694119     0.08900
C264        C  0.13073476  0.81823754  0.74985981     0.19900
C265        C  0.19467346  0.85430954  0.74984606    -0.55000
C266        C  0.17729104  0.81781103  0.74986283     0.09000
C267        C  0.13695310  0.88002583  0.70315660    -0.54500
C268        C  0.11961862  0.84339866  0.70276091     0.09600
H269        H  0.13293991  0.90121106  0.82723530     0.14100
H270        H  0.11732969  0.78822043  0.74987195    -0.00100
H271        H  0.22737847  0.85717101  0.74986199     0.14400
H272        H  0.13296411  0.90119008  0.67243614     0.14200
C273        C  0.22603659  0.05353012  0.74978128     0.86000
C274        C  0.25279904  0.06217315  0.79644258    -0.54200
C275        C  0.27013372  0.09880074  0.79683964     0.08900
C276        C  0.25899616  0.12397251  0.74975916     0.19900
C277        C  0.19505752  0.08790019  0.74980571    -0.55000
C278        C  0.21243990  0.12439874  0.74979291     0.09000
C279        C  0.25277502  0.06217957  0.70307719    -0.54500
C280        C  0.27011354  0.09880391  0.70265939     0.09600
H281        H  0.25680049  0.04100384  0.82715258     0.14100
H282        H  0.27240092  0.15398939  0.74975001    -0.00100
H283        H  0.16235311  0.08503881  0.74981869     0.14400
H284        H  0.25675801  0.04101481  0.67235303     0.14200
N285        N  0.32897961  0.15122284  0.89458969    -0.27800
N286        N  0.31523127  0.12086702  0.92108495    -0.35600
C287        C  0.29372396  0.09727113  0.89009226     0.00600
C288        C  0.29348254  0.11350448  0.84148460     0.06600
C289        C  0.31617449  0.14784362  0.84578321    -0.06500
H290        H  0.27762756  0.07129391  0.90291011     0.07300
H291        H  0.32222002  0.16922748  0.81604360     0.08500
Cu292      Cu  0.32047978  0.11564830  0.99972274     0.44200
Cu293      Cu  0.36285398  0.19585258  0.92880817     0.42000
Cu294      Cu  0.36277539  0.19584888  0.57056151     0.43900
N295        N  0.31519723  0.12085953  0.57836181    -0.35200
N296        N  0.32892401  0.15122777  0.60483275    -0.29400
C297        C  0.31612021  0.14785577  0.65365025    -0.05500
C298        C  0.29344885  0.11350686  0.65798368     0.06700
C299        C  0.29370125  0.09725892  0.60938284     0.00500
H300        H  0.32215485  0.16925134  0.68337504     0.08100
H301        H  0.27762528  0.07127102  0.59659273     0.07200
N302        N  0.39677729  0.23395603  0.52503554    -0.36600
N303        N  0.39681129  0.23396454  0.97437353    -0.28800
C304        C  0.42156521  0.26282785  0.95773346    -0.04000
C305        C  0.43802481  0.28152394  0.99975192     0.04600
C306        C  0.42150645  0.26280900  0.54173009     0.02700
H307        H  0.42636126  0.27032732  0.91799122     0.07800
H308        H  0.42624503  0.27028866  0.58148395     0.06600
C309        C  0.16788083  0.00260952  0.74984994    -0.09600
C310        C  0.20975898  0.01090906  0.74979051     0.06600
C311        C  0.23671578  0.97827062  0.74973589    -0.03400
C312        C  0.22185034  0.93960041  0.74974393    -0.07900
C313        C  0.17997231  0.93130074  0.74981276     0.05700
C314        C  0.15301551  0.96393920  0.74985350    -0.02900
Br315      Br  0.09484312  0.95859828  0.74991037    -0.02600
H316        H  0.14554026  0.02581015  0.74989637     0.09600
H317        H  0.24419145  0.91639896  0.74968411     0.07600
Br318      Br  0.29488813  0.98361166  0.74964197    -0.03000
C319        C  0.47185509  0.50260357  0.49985729    -0.09600
C320        C  0.42997805  0.51091252  0.49986484     0.06600
C321        C  0.40301667  0.47828026  0.99987990    -0.03400
C322        C  0.41787636  0.43960612  0.99988071    -0.07900
C323        C  0.45975349  0.43129724  0.49986363     0.05700
C324        C  0.48671488  0.46392952  0.49986263    -0.02900
Br325      Br  0.04488654  0.45857524  0.49987373    -0.02600
H326        H  0.49419747  0.52579801  0.49984965     0.09600
H327        H  0.39553449  0.41641240  0.99990192     0.07600
Br328      Br  0.34484499  0.48363447  0.99990651    -0.03000
N329        N  0.57898189  0.29099429  0.35495282    -0.27800
N330        N  0.56522503  0.32134644  0.32846979    -0.35600
C331        C  0.54372006  0.34494332  0.35948518     0.00600
C332        C  0.54348949  0.32871128  0.40809399     0.06600
C333        C  0.56618521  0.29437337  0.40377375    -0.06500
H334        H  0.52761298  0.37091720  0.34668269     0.07300
H335        H  0.57223610  0.27299074  0.43350495     0.08500
Cu336      Cu  0.57045767  0.32653646  0.24982371     0.44200
Cu337      Cu  0.61284982  0.24637393  0.32069053     0.42000
Cu338      Cu  0.61278911  0.24632352  0.17893082     0.43900
N339        N  0.56516510  0.32130364  0.17119316    -0.35200
N340        N  0.57890412  0.29094099  0.14470425    -0.29400
C341        C  0.56609492  0.29431557  0.09589859    -0.05500
C342        C  0.54340801  0.32865990  0.09159455     0.06700
C343        C  0.54365684  0.34490010  0.14019801     0.00500
H344        H  0.57214035  0.27293179  0.06616508     0.08100
H345        H  0.52757414  0.37088823  0.15300937     0.07200
N346        N  0.64679612  0.20823448  0.22446750    -0.36600
N347        N  0.64682079  0.20825802  0.27512958    -0.28800
C348        C  0.67157531  0.17941019  0.29179113    -0.04000
C349        C  0.68804672  0.16068501  0.24978991     0.04600
C350        C  0.67153369  0.17936841  0.20779459     0.02700
H351        H  0.67636005  0.17193772  0.33154166     0.07800
H352        H  0.67628098  0.17185831  0.16805018     0.06600
C353        C  0.91370633  0.55353731  0.99986868     0.86000
C354        C  0.88696487  0.56219383  0.45319175    -0.54200
C355        C  0.86963134  0.59882331  0.45279276     0.08900
C356        C  0.88075305  0.62398631  0.99988503     0.19900
C357        C  0.94468892  0.58790149  0.99987053    -0.55000
C358        C  0.92730987  0.62440367  0.99988079     0.09000
C359        C  0.88694900  0.56218352  0.04655693    -0.54500
C360        C  0.86961574  0.59881212  0.04697257     0.09600
H361        H  0.88297303  0.54102904  0.42247380     0.14100
H362        H  0.86735074  0.65400474  0.99989235    -0.00100
H363        H  0.97739265  0.58503341  0.99986936     0.14400
H364        H  0.88295168  0.54101574  0.07727213     0.14200
C365        C  0.97602516  0.38867241  0.49984916     0.86000
C366        C  0.00280354  0.38003701  0.45317579    -0.54200
C367        C  0.52013702  0.34340816  0.45275847     0.08900
C368        C  0.00897806  0.31822324  0.49982748     0.19900
C369        C  0.94504186  0.35430848  0.99980880    -0.55000
C370        C  0.96242131  0.31780612  0.49979468     0.09000
C371        C  0.00274541  0.38000516  0.04654133    -0.54500
C372        C  0.52007832  0.34337537  0.04693811     0.09600
H373        H  0.00681363  0.40121076  0.42246992     0.14100
H374        H  0.52238044  0.28820421  0.99981713    -0.00100
H375        H  0.91234107  0.35717620  0.99978082     0.13400
H376        H  0.00672431  0.40116228  0.07726626     0.14200
N377        N  0.81077987  0.65124627  0.35503985    -0.27800
N378        N  0.82453565  0.62089367  0.32854442    -0.35600
C379        C  0.84605128  0.59730019  0.35953584     0.00600
C380        C  0.84628895  0.61353255  0.40814354     0.06600
C381        C  0.82358730  0.64786784  0.40384564    -0.06500
H382        H  0.86214954  0.57132591  0.34671975     0.07300
H383        H  0.81753292  0.66924835  0.43358749     0.08500
Cu384      Cu  0.81927285  0.61567237  0.24990946     0.44200
Cu385      Cu  0.77688674  0.69586488  0.32082023     0.42000
Cu386      Cu  0.77693511  0.69585564  0.17906066     0.43900
N387        N  0.82453554  0.62087440  0.17126771    -0.35200
N388        N  0.81079543  0.65123668  0.14479124    -0.29400
C389        C  0.82359452  0.64786095  0.09597184    -0.05500
C390        C  0.84627552  0.61351515  0.09164406     0.06700
C391        C  0.84603388  0.59727436  0.14024886     0.00500
H392        H  0.81755131  0.66925165  0.06624268     0.08100
H393        H  0.86212393  0.57128920  0.15304532     0.07200
N394        N  0.74293346  0.73395889  0.22459702    -0.36600
N395        N  0.74291067  0.73396719  0.27525913    -0.28800
C396        C  0.71815624  0.76282890  0.29190734    -0.04000
C397        C  0.70168414  0.78152462  0.24989434     0.04600
C398        C  0.71819621  0.76281148  0.20791068     0.02700
H399        H  0.71337100  0.77032907  0.33164887     0.07800
H400        H  0.71344958  0.77029383  0.16815762     0.06600
N401        N  0.56075965  0.79100491  0.39475477    -0.27800
N402        N  0.57450344  0.82136303  0.42123221    -0.35600
C403        C  0.59600617  0.84495923  0.39021435     0.00600
C404        C  0.59624814  0.82872048  0.34160999     0.06600
C405        C  0.57356154  0.79438006  0.34593632    -0.06500
H406        H  0.61210194  0.87093974  0.40301250     0.07300
H407        H  0.56751866  0.77299084  0.31620741     0.08500
Cu408      Cu  0.56925060  0.82656242  0.49987571     0.44200
Cu409      Cu  0.52689993  0.74638278  0.42901904     0.42000
Cu410      Cu  0.52693022  0.74633777  0.07077237     0.43900
N411        N  0.57452886  0.82133183  0.07850918    -0.35200
N412        N  0.56079698  0.79096607  0.10499787    -0.29400
C413        C  0.57360428  0.79434131  0.15380385    -0.05500
C414        C  0.59628195  0.82868890  0.15810900     0.06700
C415        C  0.59602960  0.84493078  0.10950538     0.00500
H416        H  0.56756730  0.77295302  0.18353657     0.08100
H417        H  0.61210926  0.87091918  0.09669352     0.07200
N418        N  0.99294253  0.70823844  0.02523136    -0.36600
N419        N  0.99292924  0.70826227  0.47456944    -0.28800
C420        C  0.96818333  0.67941328  0.45789851    -0.04000
C421        C  0.95170610  0.66068604  0.49989524     0.04600
C422        C  0.96820620  0.67937024  0.04189560     0.02700
H423        H  0.96340747  0.67194446  0.41815258     0.07800
H424        H  0.96344799  0.67186032  0.08164284     0.06600
C425        C  0.66369465  0.88867970  0.24983235     0.86000
C426        C  0.63693521  0.88004135  0.29652203    -0.54200
C427        C  0.61959611  0.84341679  0.29694124     0.08900
C428        C  0.63073470  0.81823732  0.24985985     0.19900
C429        C  0.69467347  0.85430953  0.24984604    -0.55000
C430        C  0.67729110  0.81781104  0.24986284     0.09000
C431        C  0.63695303  0.88002605  0.20315626    -0.54500
C432        C  0.61961863  0.84339861  0.20276099     0.09600
H433        H  0.63293989  0.90121123  0.32723559     0.14100
H434        H  0.61732995  0.78822091  0.24987199    -0.00100
H435        H  0.72737849  0.85717099  0.24986193     0.14400
H436        H  0.63296429  0.90118898  0.17243776     0.14200
C437        C  0.72603658  0.05353012  0.24978132     0.86000
C438        C  0.75279908  0.06217316  0.29644255    -0.54200
C439        C  0.77013373  0.09880072  0.29683962     0.08900
C440        C  0.75899620  0.12397262  0.24975914     0.19900
C441        C  0.69505768  0.08790021  0.24980575    -0.55000
C442        C  0.71243988  0.12439872  0.24979292     0.09000
C443        C  0.75277504  0.06217941  0.20307697    -0.54500
C444        C  0.77011353  0.09880393  0.20265940     0.09600
H445        H  0.75680057  0.04100374  0.32715270     0.14100
H446        H  0.77240081  0.15398912  0.24974998    -0.00100
H447        H  0.66235208  0.08503848  0.24981877     0.14400
H448        H  0.75675786  0.04101549  0.17235402     0.14200
N449        N  0.82897961  0.15122291  0.39458965    -0.27800
N450        N  0.81523128  0.12086710  0.42108492    -0.35600
C451        C  0.79372398  0.09727117  0.39009225     0.00600
C452        C  0.79348256  0.11350452  0.34148457     0.06600
C453        C  0.81617450  0.14784366  0.34578318    -0.06500
H454        H  0.77762765  0.07129405  0.40291006     0.07300
H455        H  0.82222005  0.16922757  0.31604347     0.08500
Cu456      Cu  0.82047979  0.11564839  0.49972273     0.44200
Cu457      Cu  0.86285398  0.19585265  0.42880812     0.42000
Cu458      Cu  0.86277540  0.19584890  0.07056151     0.43900
N459        N  0.81519719  0.12085944  0.07836179    -0.35200
N460        N  0.82892400  0.15122770  0.10483269    -0.29400
C461        C  0.81612027  0.14785601  0.15365057    -0.05500
C462        C  0.79344878  0.11350676  0.15798358     0.06700
C463        C  0.79370160  0.09725950  0.10938311     0.00500
H464        H  0.82215453  0.16925017  0.18337342     0.08100
H465        H  0.77762358  0.07126826  0.09659135     0.07200
N466        N  0.89677726  0.23395607  0.02503554    -0.36600
N467        N  0.89681132  0.23396455  0.47437354    -0.28800
C468        C  0.92156521  0.26282790  0.45773344    -0.04000
C469        C  0.93802484  0.28152393  0.49975195     0.04600
C470        C  0.92150639  0.26280904  0.04172997     0.02700
H471        H  0.92636116  0.27032737  0.41799147     0.07800
H472        H  0.92624499  0.27028882  0.08148430     0.06600
C473        C  0.66788118  0.00260911  0.24984992    -0.09600
C474        C  0.70975894  0.01090910  0.24979051     0.06600
C475        C  0.73671576  0.97827061  0.24973587    -0.03400
C476        C  0.72185040  0.93960033  0.24974390    -0.07900
C477        C  0.67997229  0.93130075  0.24981272     0.05700
C478        C  0.65301548  0.96393924  0.24985348    -0.02900
Br479      Br  0.59484310  0.95859825  0.24991036    -0.02600
H480        H  0.64553856  0.02581232  0.24989636     0.09600
H481        H  0.74419125  0.91639919  0.24968407     0.07600
Br482      Br  0.79488812  0.98361161  0.24964194    -0.03000
C483        C  0.97185513  0.50260361  0.99985729    -0.09600
C484        C  0.92997804  0.51091253  0.99986483     0.06600
C485        C  0.90301667  0.47828023  0.49987990    -0.03400
C486        C  0.91787645  0.43960619  0.49988070    -0.07900
C487        C  0.95975349  0.43129726  0.99986362     0.05700
C488        C  0.98671487  0.46392952  0.99986263    -0.02900
Br489      Br  0.54488653  0.45857522  0.99987376    -0.02600
H490        H  0.99419740  0.52579803  0.99984967     0.09600
H491        H  0.89553411  0.41641186  0.49990188     0.07600
Br492      Br  0.84484499  0.48363442  0.49990650    -0.03000
N493        N  0.57898197  0.29099433  0.85495281    -0.27800
N494        N  0.56522507  0.32134641  0.82846977    -0.35600
C495        C  0.54371982  0.34494368  0.85948500     0.00600
C496        C  0.54348950  0.32871130  0.90809399     0.06600
C497        C  0.56618533  0.29437320  0.90377409    -0.06500
H498        H  0.52761395  0.37091553  0.84668350     0.07300
H499        H  0.57223585  0.27299190  0.93350354     0.08500
Cu500      Cu  0.57045766  0.32653642  0.74982374     0.44200
Cu501      Cu  0.61284996  0.24637401  0.82069061     0.42000
Cu502      Cu  0.61278915  0.24632359  0.67893086     0.43900
N503        N  0.56516512  0.32130357  0.67119318    -0.35200
N504        N  0.57890417  0.29094096  0.64470422    -0.29400
C505        C  0.56609488  0.29431588  0.59589904    -0.05500
C506        C  0.54340806  0.32865980  0.59159450     0.06700
C507        C  0.54365654  0.34490053  0.64019826     0.00500
H508        H  0.57214082  0.27293039  0.56616316     0.08100
H509        H  0.52757538  0.37088610  0.65300836     0.07200
N510        N  0.64679617  0.20823451  0.72446752    -0.36600
N511        N  0.64682086  0.20825805  0.77512960    -0.28800
C512        C  0.67157538  0.17941018  0.79179126    -0.04000
C513        C  0.68804673  0.16068501  0.74978987     0.04600
C514        C  0.67153367  0.17936848  0.70779485     0.02700
H515        H  0.67636008  0.17193782  0.83154119     0.07800
H516        H  0.67628108  0.17185813  0.66804906     0.06600
C517        C  0.91370625  0.55353729  0.49986870     0.86000
C518        C  0.88696489  0.56219382  0.95319172    -0.54200
C519        C  0.86963137  0.59882332  0.95279278     0.08900
C520        C  0.88075308  0.62398625  0.49988500     0.19900
C521        C  0.94468935  0.58790142  0.49987050    -0.55000
C522        C  0.92730980  0.62440370  0.49988075     0.09000
C523        C  0.88694902  0.56218369  0.54655668    -0.54500
C524        C  0.86961573  0.59881213  0.54697258     0.09600
H525        H  0.88297309  0.54102919  0.92247396     0.14100
H526        H  0.86735067  0.65400493  0.49989230    -0.00100
H527        H  0.97739066  0.58503368  0.49986935     0.14400
H528        H  0.88295154  0.54101511  0.57727310     0.14200
C529        C  0.97602516  0.38867241  0.99984913     0.86000
C530        C  0.00280353  0.38003703  0.95317579    -0.54200
C531        C  0.52013701  0.34340816  0.95275844     0.08900
C532        C  0.00897796  0.31822344  0.99982744     0.19900
C533        C  0.94504204  0.35430844  0.49980888    -0.55000
C534        C  0.96242132  0.31780609  0.99979459     0.09000
C535        C  0.00274544  0.38000512  0.54654127    -0.54500
C536        C  0.52007832  0.34337542  0.54693817     0.09600
H537        H  0.00681364  0.40121080  0.92246992     0.14100
H538        H  0.52238020  0.28820477  0.49981719    -0.00100
H539        H  0.91234028  0.35717634  0.49978091     0.13400
H540        H  0.00672442  0.40116260  0.57726669     0.14200
N541        N  0.81077989  0.65124625  0.85503984    -0.27800
N542        N  0.82453572  0.62089366  0.82854442    -0.35600
C543        C  0.84605117  0.59730051  0.85953598     0.00600
C544        C  0.84628901  0.61353253  0.90814351     0.06600
C545        C  0.82358728  0.64786794  0.90384578    -0.06500
H546        H  0.86215042  0.57132465  0.84671910     0.07300
H547        H  0.81753303  0.66924791  0.93358689     0.08500
Cu548      Cu  0.81927297  0.61567239  0.74990943     0.44200
Cu549      Cu  0.77688670  0.69586485  0.82082025     0.42000
Cu550      Cu  0.77693516  0.69585566  0.67906071     0.43900
N551        N  0.82453562  0.62087450  0.67126774    -0.35200
N552        N  0.81079546  0.65123672  0.64479131    -0.29400
C553        C  0.82359445  0.64786125  0.59597146    -0.05500
C554        C  0.84627555  0.61351519  0.59164406     0.06700
C555        C  0.84603415  0.59727416  0.64024900     0.00500
H556        H  0.81755163  0.66925039  0.56624436     0.08100
H557        H  0.86212323  0.57129063  0.65304462     0.07200
N558        N  0.74293344  0.73395891  0.72459705    -0.36600
N559        N  0.74291062  0.73396720  0.77525918    -0.28800
C560        C  0.71815620  0.76282885  0.79190714    -0.04000
C561        C  0.70168409  0.78152461  0.74989436     0.04600
C562        C  0.71819620  0.76281146  0.70791077     0.02700
H563        H  0.71337082  0.77032925  0.83164988     0.07800
H564        H  0.71344954  0.77029390  0.66815729     0.06600
N565        N  0.56075963  0.79100490  0.89475482    -0.27800
N566        N  0.57450340  0.82136298  0.92123223    -0.35600
C567        C  0.59600656  0.84495986  0.89021462     0.00600
C568        C  0.59624811  0.82872047  0.84160994     0.06600
C569        C  0.57356146  0.79437980  0.84593592    -0.06500
H570        H  0.61210016  0.87093683  0.90301100     0.07300
H571        H  0.56751904  0.77299221  0.81620917     0.08500
Cu572      Cu  0.56925060  0.82656244  0.99987571     0.44200
Cu573      Cu  0.52689990  0.74638278  0.92901900     0.42000
Cu574      Cu  0.52693025  0.74633772  0.57077241     0.43900
N575        N  0.57452880  0.82133187  0.57850919    -0.35200
N576        N  0.56079695  0.79096609  0.60499791    -0.29400
C577        C  0.57360430  0.79434154  0.65380358    -0.05500
C578        C  0.59628190  0.82868893  0.65810900     0.06700
C579        C  0.59602953  0.84493082  0.60950536     0.00500
H580        H  0.56756704  0.77295215  0.68353780     0.08100
H581        H  0.61210923  0.87091928  0.59669347     0.07200
N582        N  0.99294259  0.70823842  0.52523140    -0.36600
N583        N  0.99292917  0.70826225  0.97456935    -0.28800
C584        C  0.96818339  0.67941344  0.95789928    -0.04000
C585        C  0.95170608  0.66068606  0.99989518     0.04600
C586        C  0.96820618  0.67937015  0.54189587     0.02700
H587        H  0.96340703  0.67194382  0.91814889     0.07800
H588        H  0.96344810  0.67186050  0.58164159     0.06600
C589        C  0.66369462  0.88867971  0.74983229     0.86000
C590        C  0.63693517  0.88004144  0.79652212    -0.54200
C591        C  0.61959607  0.84341677  0.79694118     0.08900
C592        C  0.63073476  0.81823754  0.74985981     0.19900
C593        C  0.69467346  0.85430954  0.74984605    -0.55000
C594        C  0.67729104  0.81781102  0.74986283     0.09000
C595        C  0.63695310  0.88002583  0.70315660    -0.54500
C596        C  0.61961861  0.84339866  0.70276091     0.09600
H597        H  0.63293994  0.90121091  0.82723508     0.14100
H598        H  0.61732969  0.78822043  0.74987195    -0.00100
H599        H  0.72737847  0.85717101  0.74986198     0.14400
H600        H  0.63296410  0.90119008  0.67243614     0.14200
C601        C  0.72603659  0.05353012  0.74978128     0.86000
C602        C  0.75279904  0.06217315  0.79644258    -0.54200
C603        C  0.77013372  0.09880073  0.79683964     0.08900
C604        C  0.75899617  0.12397251  0.74975916     0.19900
C605        C  0.69505752  0.08790019  0.74980572    -0.55000
C606        C  0.71243990  0.12439874  0.74979291     0.09000
C607        C  0.75277502  0.06217956  0.70307719    -0.54500
C608        C  0.77011354  0.09880391  0.70265938     0.09600
H609        H  0.75680049  0.04100383  0.82715258     0.14100
H610        H  0.77240093  0.15398938  0.74975001    -0.00100
H611        H  0.66235311  0.08503881  0.74981870     0.14400
H612        H  0.75675800  0.04101481  0.67235303     0.14200
N613        N  0.82897961  0.15122284  0.89458969    -0.27800
N614        N  0.81523127  0.12086703  0.92108495    -0.35600
C615        C  0.79372396  0.09727113  0.89009226     0.00600
C616        C  0.79348254  0.11350448  0.84148461     0.06600
C617        C  0.81617449  0.14784362  0.84578321    -0.06500
H618        H  0.77762756  0.07129391  0.90291012     0.07300
H619        H  0.82222002  0.16922748  0.81604360     0.08500
Cu620      Cu  0.82047978  0.11564830  0.99972275     0.44200
Cu621      Cu  0.86285398  0.19585258  0.92880818     0.42000
Cu622      Cu  0.86277539  0.19584888  0.57056151     0.43900
N623        N  0.81519723  0.12085953  0.57836180    -0.35200
N624        N  0.82892400  0.15122776  0.60483274    -0.29400
C625        C  0.81612020  0.14785577  0.65365024    -0.05500
C626        C  0.79344884  0.11350686  0.65798368     0.06700
C627        C  0.79370125  0.09725891  0.60938284     0.00500
H628        H  0.82215485  0.16925134  0.68337503     0.08100
H629        H  0.77762528  0.07127102  0.59659273     0.07200
N630        N  0.89677728  0.23395604  0.52503554    -0.36600
N631        N  0.89681130  0.23396454  0.97437353    -0.28800
C632        C  0.92156519  0.26282786  0.95773345    -0.04000
C633        C  0.93802480  0.28152395  0.99975190     0.04600
C634        C  0.92150645  0.26280901  0.54173009     0.02700
H635        H  0.92636121  0.27032734  0.91799121     0.07800
H636        H  0.92624503  0.27028866  0.58148396     0.06600
C637        C  0.66788083  0.00260951  0.74984994    -0.09600
C638        C  0.70975898  0.01090906  0.74979051     0.06600
C639        C  0.73671578  0.97827061  0.74973589    -0.03400
C640        C  0.72185034  0.93960040  0.74974393    -0.07900
C641        C  0.67997231  0.93130074  0.74981276     0.05700
C642        C  0.65301550  0.96393919  0.74985350    -0.02900
Br643      Br  0.59484312  0.95859828  0.74991037    -0.02600
H644        H  0.64554026  0.02581015  0.74989637     0.09600
H645        H  0.74419145  0.91639896  0.74968411     0.07600
Br646      Br  0.79488813  0.98361166  0.74964197    -0.03000
C647        C  0.97185509  0.50260357  0.49985728    -0.09600
C648        C  0.92997805  0.51091252  0.49986483     0.06600
C649        C  0.90301667  0.47828026  0.99987989    -0.03400
C650        C  0.91787637  0.43960612  0.99988071    -0.07900
C651        C  0.95975349  0.43129724  0.49986363     0.05700
C652        C  0.98671488  0.46392952  0.49986263    -0.02900
Br653      Br  0.54488654  0.45857524  0.49987373    -0.02600
H654        H  0.99419747  0.52579801  0.49984964     0.09600
H655        H  0.89553449  0.41641241  0.99990192     0.07600
Br656      Br  0.84484499  0.48363447  0.99990651    -0.03000
loop_ 
_geom_bond_atom_site_label_1 
_geom_bond_atom_site_label_2 
_geom_bond_distance 
_geom_bond_site_symmetry_2 
_ccdc_geom_bond_type 
N1            N2   1.321       .  A
N1            C5   1.350       .  A
N1           Cu9   2.083       .  S
N2            C3   1.342       .  A
N2           Cu8   2.072       .  S
C3            C4   1.386       .  A
C3            H6   1.081       .  S
C4            C5   1.388       .  A
C4           C39   1.485       .  S
C5            H7   1.082       .  S
Cu8          N11   2.072       .  S
Cu9          N19   2.084       .  S
Cu10         N12   2.083       .  S
Cu10         N18   2.084       .  S
N11          N12   1.321       .  A
N11          C15   1.342       .  A
N12          C13   1.350       .  A
C13          C14   1.388       .  A
C13          H16   1.082       .  S
C14          C15   1.386       .  A
C14          C44   1.485       .  S
C15          H17   1.081       .  S
N18          N19   1.325       .  A
N18          C22   1.346       .  A
N19          C20   1.346       .  A
C20          C21   1.380       .  A
C20          H23   1.082       .  S
C21          C22   1.380       .  A
C21         C114   1.470       .  S
C22          H24   1.082       .  S
C25          C31   1.535   1_556  S
C25          C29   1.549       .  S
C25         C190   1.535       .  S
C25         C156   1.541       .  S
C26         C189   1.535       .  S
C26          H33   1.085       .  S
C26          C27   1.367       .  D
C27          C52   1.485       .  S
C27         C192   1.543       .  S
C28          C32   1.543   1_556  S
C28          C30   1.535       .  S
C28         C191   1.543       .  S
C28          H34   1.109       .  S
C29          H35   1.083       .  S
C29          C30   1.364       .  D
C30         C257   1.470       .  S
C31          H36   1.085       .  S
C31          C32   1.367       .  D
C32          C62   1.485       .  S
C37          C38   1.535       .  S
C37         C207   1.535       .  S
C37         C205   1.549       .  S
C37         C323   1.541       .  S
C38          H45   1.085       .  S
C38         C367   1.367       .  D
C39         C368   1.543       .  S
C39         C366   1.367       .  D
C40          C42   1.535       .  S
C40         C367   1.543       .  S
C40         C536   1.543       .  S
C40         H538   1.109       .  S
C41         C201   1.549       .  S
C41          H47   1.083       .  S
C41         C206   1.364       .  D
C42         C141   1.470       .  S
C42         C205   1.364       .  D
C43         C201   1.535   1_554  S
C43          H48   1.085       .  S
C43         C372   1.367       .  D
C44         C532   1.543   1_554  S
C44         C371   1.367       .  D
H46         C532   1.109       .  S
N49          N50   1.321       .  A
N49          C53   1.350       .  A
N49         Cu57   2.083       .  S
N50          C51   1.342       .  A
N50         Cu56   2.072       .  S
C51          C52   1.386       .  A
C51          H54   1.081       .  S
C52          C53   1.388       .  A
C53          H55   1.082       .  S
Cu56         N59   2.072       .  S
Cu57         N67   2.084       .  S
Cu58         N60   2.083       .  S
Cu58         N66   2.084       .  S
N59          N60   1.321       .  A
N59          C63   1.342       .  A
N60          C61   1.350       .  A
C61          C62   1.388       .  A
C61          H64   1.082       .  S
C62          C63   1.386       .  A
C63          H65   1.081       .  S
N66          N67   1.325       .  A
N66          C70   1.346       .  A
N67          C68   1.346       .  A
C68          C69   1.380       .  A
C68          H71   1.082       .  S
C69          C70   1.380       .  A
C69         C102   1.470       .  S
C70          H72   1.082       .  S
N73          N74   1.321       .  A
N73          C77   1.350       .  A
N73         Cu81   2.083       .  S
N74          C75   1.342       .  A
N74         Cu80   2.072       .  S
C75          C76   1.386       .  A
C75          H78   1.081       .  S
C76          C77   1.388       .  A
C76          C99   1.485       .  S
C77          H79   1.082       .  S
Cu80        N247   2.072       .  S
Cu81        N419   2.084   1_455  S
Cu82         N84   2.083       .  S
Cu82        N418   2.084   1_455  S
N83          N84   1.321       .  A
N83          C87   1.342       .  A
N83        Cu244   2.072   1_554  S
N84          C85   1.350       .  A
C85          C86   1.388       .  A
C85          H88   1.082       .  S
C86          C87   1.386       .  A
C86         C104   1.485       .  S
C87          H89   1.081       .  S
N90         N255   1.325   1_554  A
N90          C94   1.346       .  A
N90        Cu410   2.084       .  S
N91         N254   1.325       .  A
N91          C92   1.346       .  A
N91        Cu409   2.084       .  S
C92          C93   1.380       .  A
C92          H95   1.082       .  S
C93         C258   1.380       .  A
C93         C194   1.470       .  S
C94         C257   1.380   1_554  A
C94          H96   1.082       .  S
C97          C98   1.535       .  S
C97         C103   1.535       .  S
C97         C101   1.549       .  S
C97         C149   1.541       .  S
C98         H105   1.085       .  S
C98          C99   1.367       .  D
C99         C100   1.543       .  S
C100        C104   1.543       .  S
C100        C102   1.535       .  S
C100        H106   1.109       .  S
C101        H107   1.083       .  S
C101        C102   1.363       .  D
C103        H108   1.085       .  S
C103        C104   1.367       .  D
C109        C110   1.535       .  S
C109        C115   1.535       .  S
C109        C113   1.549       .  S
C109        C146   1.541       .  S
C110        H117   1.085       .  S
C110        C111   1.367       .  D
C111        C124   1.485       .  S
C111        C112   1.543       .  S
C112        C116   1.543       .  S
C112        C114   1.535       .  S
C112        H118   1.109       .  S
C113        H119   1.083       .  S
C113        C114   1.363       .  D
C115        H120   1.085       .  S
C115        C116   1.367       .  D
C116        C134   1.485       .  S
N121        N122   1.321       .  A
N121        C125   1.350       .  A
N121       Cu129   2.083       .  S
N122        C123   1.342       .  A
N122       Cu128   2.072       .  S
C123        C124   1.386       .  A
C123        H126   1.081       .  S
C124        C125   1.388       .  A
C125        H127   1.082       .  S
Cu128       N295   2.072       .  S
Cu129       N139   2.084       .  S
Cu130       N132   2.082       .  S
Cu130       N138   2.084       .  S
N131        N132   1.321       .  A
N131        C135   1.342       .  A
N131       Cu292   2.072   1_554  S
N132        C133   1.350       .  A
C133        C134   1.388       .  A
C133        H136   1.082       .  S
C134        C135   1.386       .  A
C135        H137   1.081       .  S
N138        N303   1.325   1_554  A
N138        C142   1.346       .  A
N139        N302   1.325       .  A
N139        C140   1.346       .  A
C140        C141   1.380       .  A
C140        H143   1.082       .  S
C141        C306   1.380       .  A
C142        C305   1.380   1_554  A
C142        H144   1.082       .  S
C145        C146   1.409       .  A
C145        C150   1.399   1_545  A
C145        H152   1.078       .  S
C146        C147   1.419   1_545  A
C147        C148   1.399       .  A
C147       Br154   1.926       .  S
C148        C149   1.409       .  A
C148        H153   1.077       .  S
C149        C150   1.419       .  A
C150       Br151   1.926       .  S
C155        C156   1.409       .  A
C155        C160   1.399       .  A
C155        H162   1.077       .  S
C156        C321   1.419       .  A
C157        C158   1.399       .  A
C157        C320   1.419       .  A
C157       Br164   1.926       .  S
C158        C323   1.409       .  A
C158        H163   1.077       .  S
C159        C160   1.419       .  A
C159        C322   1.409       .  A
C159        C201   1.541       .  S
C160       Br489   1.926       .  S
Br161       C488   1.926   1_455  S
N165        N166   1.321       .  A
N165        C169   1.350       .  A
N165       Cu173   2.083       .  S
N166        C167   1.342       .  A
N166       Cu172   2.072       .  S
C167        C168   1.386       .  A
C167        H170   1.081       .  S
C168        C169   1.388       .  A
C168        C203   1.485       .  S
C169        H171   1.082       .  S
Cu172       N175   2.072       .  S
Cu173       N183   2.084       .  S
Cu174       N176   2.083       .  S
Cu174       N182   2.084       .  S
N175        N176   1.321       .  A
N175        C179   1.342       .  A
N176        C177   1.350       .  A
C177        C178   1.388       .  A
C177        H180   1.082       .  S
C178        C179   1.386       .  A
C178        C208   1.485       .  S
C179        H181   1.081       .  S
N182        N183   1.325       .  A
N182        C186   1.346       .  A
N183        C184   1.346       .  A
C184        C185   1.380       .  A
C184        H187   1.082       .  S
C185        C186   1.380       .  A
C185        C278   1.470       .  S
C186        H188   1.082       .  S
C189        C195   1.535       .  S
C189        C193   1.549       .  S
C189        C320   1.541       .  S
C190        H197   1.085       .  S
C190        C191   1.367       .  D
C191        C216   1.485       .  S
C192        C196   1.543       .  S
C192        C194   1.535       .  S
C192        H198   1.109       .  S
C193        H199   1.083       .  S
C193        C194   1.364       .  D
C195        H200   1.085       .  S
C195        C196   1.367       .  D
C196        C226   1.485       .  S
C201        C202   1.535       .  S
C202        H209   1.085       .  S
C202        C531   1.367       .  D
C203        C532   1.543       .  S
C203        C530   1.367       .  D
C204        C531   1.543       .  S
C204        C372   1.543   1_556  S
C204        C206   1.535       .  S
C204        H374   1.109       .  S
C205        H211   1.083       .  S
C206        C305   1.470       .  S
C207        H212   1.085       .  S
C207        C536   1.367       .  D
C208        C368   1.543       .  S
C208        C535   1.367       .  D
H210        C368   1.109       .  S
N213        N214   1.321       .  A
N213        C217   1.350       .  A
N213       Cu221   2.083       .  S
N214        C215   1.342       .  A
N214       Cu220   2.072       .  S
C215        C216   1.386       .  A
C215        H218   1.081       .  S
C216        C217   1.388       .  A
C217        H219   1.082       .  S
Cu220       N223   2.072       .  S
Cu221       N231   2.084       .  S
Cu222       N224   2.083       .  S
Cu222       N230   2.084       .  S
N223        N224   1.321       .  A
N223        C227   1.342       .  A
N224        C225   1.350       .  A
C225        C226   1.388       .  A
C225        H228   1.082       .  S
C226        C227   1.386       .  A
C227        H229   1.081       .  S
N230        N231   1.325       .  A
N230        C234   1.346       .  A
N231        C232   1.346       .  A
C232        C233   1.380       .  A
C232        H235   1.082       .  S
C233        C234   1.380       .  A
C233        C266   1.470       .  S
C234        H236   1.082       .  S
N237        N238   1.321       .  A
N237        C241   1.350       .  A
N237       Cu245   2.083       .  S
N238        C239   1.342       .  A
N238       Cu244   2.072       .  S
C239        C240   1.386       .  A
C239        H242   1.081       .  S
C240        C241   1.388       .  A
C240        C263   1.485       .  S
C241        H243   1.082       .  S
Cu245       N583   2.084   1_455  S
Cu246       N248   2.083       .  S
Cu246       N582   2.084   1_455  S
N247        N248   1.321       .  A
N247        C251   1.342       .  A
N248        C249   1.350       .  A
C249        C250   1.388       .  A
C249        H252   1.082       .  S
C250        C251   1.386       .  A
C250        C268   1.485       .  S
C251        H253   1.081       .  S
N254        C258   1.346       .  A
N254       Cu574   2.084       .  S
N255        C256   1.346       .  A
N255       Cu573   2.084       .  S
C256        C257   1.380       .  A
C256        H259   1.082       .  S
C258        H260   1.082       .  S
C261        C262   1.535       .  S
C261        C267   1.535       .  S
C261        C265   1.549       .  S
C261        C313   1.541       .  S
C262        H269   1.085       .  S
C262        C263   1.367       .  D
C263        C264   1.543       .  S
C264        C268   1.543       .  S
C264        C266   1.535       .  S
C264        H270   1.109       .  S
C265        H271   1.083       .  S
C265        C266   1.364       .  D
C267        H272   1.085       .  S
C267        C268   1.367       .  D
C273        C274   1.535       .  S
C273        C279   1.535       .  S
C273        C277   1.549       .  S
C273        C310   1.541       .  S
C274        H281   1.085       .  S
C274        C275   1.367       .  D
C275        C288   1.485       .  S
C275        C276   1.543       .  S
C276        C280   1.543       .  S
C276        C278   1.535       .  S
C276        H282   1.109       .  S
C277        H283   1.083       .  S
C277        C278   1.364       .  D
C279        H284   1.085       .  S
C279        C280   1.367       .  D
C280        C298   1.485       .  S
N285        N286   1.321       .  A
N285        C289   1.350       .  A
N285       Cu293   2.083       .  S
N286        C287   1.342       .  A
N286       Cu292   2.072       .  S
C287        C288   1.386       .  A
C287        H290   1.081       .  S
C288        C289   1.388       .  A
C289        H291   1.082       .  S
Cu293       N303   2.084       .  S
Cu294       N296   2.082       .  S
Cu294       N302   2.084       .  S
N295        N296   1.321       .  A
N295        C299   1.342       .  A
N296        C297   1.350       .  A
C297        C298   1.388       .  A
C297        H300   1.082       .  S
C298        C299   1.386       .  A
C299        H301   1.081       .  S
N302        C306   1.346       .  A
N303        C304   1.346       .  A
C304        C305   1.380       .  A
C304        H307   1.082       .  S
C306        H308   1.082       .  S
C309        C310   1.409       .  A
C309        C314   1.399   1_545  A
C309        H316   1.077       .  S
C310        C311   1.419   1_545  A
C311        C312   1.399       .  A
C311       Br318   1.926       .  S
C312        C313   1.409       .  A
C312        H317   1.078       .  S
C313        C314   1.419       .  A
C314       Br315   1.926       .  S
C319        C320   1.409       .  A
C319        C324   1.399       .  A
C319        H326   1.077       .  S
C321        C322   1.399       .  A
C321       Br328   1.926       .  S
C322        H327   1.077       .  S
C323        C324   1.419       .  A
C324       Br653   1.926       .  S
Br325       C652   1.926   1_455  S
N329        N330   1.321       .  A
N329        C333   1.350       .  A
N329       Cu337   2.083       .  S
N330        C331   1.342       .  A
N330       Cu336   2.072       .  S
C331        C332   1.386       .  A
C331        H334   1.081       .  S
C332        C333   1.388       .  A
C332        C367   1.485       .  S
C333        H335   1.082       .  S
Cu336       N339   2.072       .  S
Cu337       N347   2.084       .  S
Cu338       N340   2.083       .  S
Cu338       N346   2.084       .  S
N339        N340   1.321       .  A
N339        C343   1.342       .  A
N340        C341   1.350       .  A
C341        C342   1.388       .  A
C341        H344   1.082       .  S
C342        C343   1.386       .  A
C342        C372   1.485       .  S
C343        H345   1.081       .  S
N346        N347   1.325       .  A
N346        C350   1.346       .  A
N347        C348   1.346       .  A
C348        C349   1.380       .  A
C348        H351   1.082       .  S
C349        C350   1.380       .  A
C349        C442   1.470       .  S
C350        H352   1.082       .  S
C353        C518   1.535       .  S
C353        C359   1.535   1_556  S
C353        C357   1.549       .  S
C353        C484   1.541       .  S
C354        C517   1.535       .  S
C354        H361   1.085       .  S
C354        C355   1.367       .  D
C355        C380   1.485       .  S
C355        C520   1.543       .  S
C356        C519   1.543       .  S
C356        C360   1.543   1_556  S
C356        C358   1.535       .  S
C356        H362   1.109       .  S
C357        H363   1.083       .  S
C357        C358   1.364       .  D
C358        C585   1.470       .  S
C359        H364   1.085       .  S
C359        C360   1.367       .  D
C360        C390   1.485       .  S
C365        C366   1.535   1_655  S
C365        C535   1.535   1_655  S
C365        C533   1.549       .  S
C365        C651   1.541       .  S
C366        H373   1.085       .  S
C368        C370   1.535   1_455  S
C369        C529   1.549       .  S
C369        H375   1.083       .  S
C369        C534   1.364       .  D
C370        C469   1.470       .  S
C370        C533   1.364       .  D
C371        C529   1.535   1_454  S
C371        H376   1.085       .  S
N377        N378   1.321       .  A
N377        C381   1.350       .  A
N377       Cu385   2.083       .  S
N378        C379   1.342       .  A
N378       Cu384   2.072       .  S
C379        C380   1.386       .  A
C379        H382   1.081       .  S
C380        C381   1.388       .  A
C381        H383   1.082       .  S
Cu384       N387   2.072       .  S
Cu385       N395   2.084       .  S
Cu386       N388   2.083       .  S
Cu386       N394   2.084       .  S
N387        N388   1.321       .  A
N387        C391   1.342       .  A
N388        C389   1.350       .  A
C389        C390   1.388       .  A
C389        H392   1.082       .  S
C390        C391   1.386       .  A
C391        H393   1.081       .  S
N394        N395   1.325       .  A
N394        C398   1.346       .  A
N395        C396   1.346       .  A
C396        C397   1.380       .  A
C396        H399   1.082       .  S
C397        C398   1.380       .  A
C397        C430   1.470       .  S
C398        H400   1.082       .  S
N401        N402   1.321       .  A
N401        C405   1.350       .  A
N401       Cu409   2.083       .  S
N402        C403   1.342       .  A
N402       Cu408   2.072       .  S
C403        C404   1.386       .  A
C403        H406   1.081       .  S
C404        C405   1.388       .  A
C404        C427   1.485       .  S
C405        H407   1.082       .  S
Cu408       N575   2.072       .  S
Cu410       N412   2.083       .  S
N411        N412   1.321       .  A
N411        C415   1.342       .  A
N411       Cu572   2.072   1_554  S
N412        C413   1.350       .  A
C413        C414   1.388       .  A
C413        H416   1.082       .  S
C414        C415   1.386       .  A
C414        C432   1.485       .  S
C415        H417   1.081       .  S
N418        N583   1.325   1_554  A
N418        C422   1.346       .  A
N419        N582   1.325       .  A
N419        C420   1.346       .  A
C420        C421   1.380       .  A
C420        H423   1.082       .  S
C421        C586   1.380       .  A
C421        C522   1.470       .  S
C422        C585   1.380   1_554  A
C422        H424   1.082       .  S
C425        C426   1.535       .  S
C425        C431   1.535       .  S
C425        C429   1.549       .  S
C425        C477   1.541       .  S
C426        H433   1.085       .  S
C426        C427   1.367       .  D
C427        C428   1.543       .  S
C428        C432   1.543       .  S
C428        C430   1.535       .  S
C428        H434   1.109       .  S
C429        H435   1.083       .  S
C429        C430   1.363       .  D
C431        H436   1.085       .  S
C431        C432   1.367       .  D
C437        C438   1.535       .  S
C437        C443   1.535       .  S
C437        C441   1.549       .  S
C437        C474   1.541       .  S
C438        H445   1.085       .  S
C438        C439   1.367       .  D
C439        C452   1.485       .  S
C439        C440   1.543       .  S
C440        C444   1.543       .  S
C440        C442   1.535       .  S
C440        H446   1.109       .  S
C441        H447   1.083       .  S
C441        C442   1.363       .  D
C443        H448   1.085       .  S
C443        C444   1.367       .  D
C444        C462   1.485       .  S
N449        N450   1.321       .  A
N449        C453   1.350       .  A
N449       Cu457   2.083       .  S
N450        C451   1.342       .  A
N450       Cu456   2.072       .  S
C451        C452   1.386       .  A
C451        H454   1.081       .  S
C452        C453   1.388       .  A
C453        H455   1.082       .  S
Cu456       N623   2.072       .  S
Cu457       N467   2.084       .  S
Cu458       N460   2.082       .  S
Cu458       N466   2.084       .  S
N459        N460   1.321       .  A
N459        C463   1.342       .  A
N459       Cu620   2.072   1_554  S
N460        C461   1.350       .  A
C461        C462   1.388       .  A
C461        H464   1.082       .  S
C462        C463   1.386       .  A
C463        H465   1.081       .  S
N466        N631   1.325   1_554  A
N466        C470   1.346       .  A
N467        N630   1.325       .  A
N467        C468   1.346       .  A
C468        C469   1.380       .  A
C468        H471   1.082       .  S
C469        C634   1.380       .  A
C470        C633   1.380   1_554  A
C470        H472   1.082       .  S
C473        C474   1.409       .  A
C473        C478   1.399   1_545  A
C473        H480   1.078       .  S
C474        C475   1.419   1_545  A
C475        C476   1.399       .  A
C475       Br482   1.926       .  S
C476        C477   1.409       .  A
C476        H481   1.077       .  S
C477        C478   1.419       .  A
C478       Br479   1.926       .  S
C483        C484   1.409       .  A
C483        C488   1.399       .  A
C483        H490   1.077       .  S
C484        C649   1.419       .  A
C485        C648   1.419       .  A
C485        C486   1.399       .  A
C485       Br492   1.926       .  S
C486        C651   1.409       .  A
C486        H491   1.077       .  S
C487        C650   1.409       .  A
C487        C488   1.419       .  A
C487        C529   1.541       .  S
N493        N494   1.321       .  A
N493        C497   1.350       .  A
N493       Cu501   2.083       .  S
N494        C495   1.342       .  A
N494       Cu500   2.072       .  S
C495        C496   1.386       .  A
C495        H498   1.081       .  S
C496        C497   1.388       .  A
C496        C531   1.485       .  S
C497        H499   1.082       .  S
Cu500       N503   2.072       .  S
Cu501       N511   2.084       .  S
Cu502       N504   2.083       .  S
Cu502       N510   2.084       .  S
N503        N504   1.321       .  A
N503        C507   1.342       .  A
N504        C505   1.350       .  A
C505        C506   1.388       .  A
C505        H508   1.082       .  S
C506        C507   1.386       .  A
C506        C536   1.485       .  S
C507        H509   1.081       .  S
N510        N511   1.325       .  A
N510        C514   1.346       .  A
N511        C512   1.346       .  A
C512        C513   1.380       .  A
C512        H515   1.082       .  S
C513        C514   1.380       .  A
C513        C606   1.470       .  S
C514        H516   1.082       .  S
C517        C523   1.535       .  S
C517        C521   1.549       .  S
C517        C648   1.541       .  S
C518        H525   1.085       .  S
C518        C519   1.367       .  D
C519        C544   1.485       .  S
C520        C524   1.543       .  S
C520        C522   1.535       .  S
C520        H526   1.109       .  S
C521        H527   1.083       .  S
C521        C522   1.364       .  D
C523        H528   1.085       .  S
C523        C524   1.367       .  D
C524        C554   1.485       .  S
C529        C530   1.535   1_655  S
C530        H537   1.085       .  S
C532        C534   1.535   1_455  S
C533        H539   1.083       .  S
C534        C633   1.470       .  S
C535        H540   1.085       .  S
N541        N542   1.321       .  A
N541        C545   1.350       .  A
N541       Cu549   2.083       .  S
N542        C543   1.342       .  A
N542       Cu548   2.072       .  S
C543        C544   1.386       .  A
C543        H546   1.081       .  S
C544        C545   1.388       .  A
C545        H547   1.082       .  S
Cu548       N551   2.072       .  S
Cu549       N559   2.084       .  S
Cu550       N552   2.083       .  S
Cu550       N558   2.084       .  S
N551        N552   1.321       .  A
N551        C555   1.342       .  A
N552        C553   1.350       .  A
C553        C554   1.388       .  A
C553        H556   1.082       .  S
C554        C555   1.386       .  A
C555        H557   1.081       .  S
N558        N559   1.325       .  A
N558        C562   1.346       .  A
N559        C560   1.346       .  A
C560        C561   1.380       .  A
C560        H563   1.082       .  S
C561        C562   1.380       .  A
C561        C594   1.470       .  S
C562        H564   1.082       .  S
N565        N566   1.321       .  A
N565        C569   1.350       .  A
N565       Cu573   2.083       .  S
N566        C567   1.342       .  A
N566       Cu572   2.072       .  S
C567        C568   1.386       .  A
C567        H570   1.081       .  S
C568        C569   1.388       .  A
C568        C591   1.485       .  S
C569        H571   1.082       .  S
Cu574       N576   2.083       .  S
N575        N576   1.321       .  A
N575        C579   1.342       .  A
N576        C577   1.350       .  A
C577        C578   1.388       .  A
C577        H580   1.082       .  S
C578        C579   1.386       .  A
C578        C596   1.485       .  S
C579        H581   1.081       .  S
N582        C586   1.346       .  A
N583        C584   1.346       .  A
C584        C585   1.380       .  A
C584        H587   1.082       .  S
C586        H588   1.082       .  S
C589        C590   1.535       .  S
C589        C595   1.535       .  S
C589        C593   1.549       .  S
C589        C641   1.541       .  S
C590        H597   1.085       .  S
C590        C591   1.367       .  D
C591        C592   1.543       .  S
C592        C596   1.543       .  S
C592        C594   1.535       .  S
C592        H598   1.109       .  S
C593        H599   1.083       .  S
C593        C594   1.364       .  D
C595        H600   1.085       .  S
C595        C596   1.367       .  D
C601        C602   1.535       .  S
C601        C607   1.535       .  S
C601        C605   1.549       .  S
C601        C638   1.541       .  S
C602        H609   1.085       .  S
C602        C603   1.367       .  D
C603        C616   1.485       .  S
C603        C604   1.543       .  S
C604        C608   1.543       .  S
C604        C606   1.535       .  S
C604        H610   1.109       .  S
C605        H611   1.083       .  S
C605        C606   1.364       .  D
C607        H612   1.085       .  S
C607        C608   1.367       .  D
C608        C626   1.485       .  S
N613        N614   1.321       .  A
N613        C617   1.350       .  A
N613       Cu621   2.083       .  S
N614        C615   1.342       .  A
N614       Cu620   2.072       .  S
C615        C616   1.386       .  A
C615        H618   1.081       .  S
C616        C617   1.388       .  A
C617        H619   1.082       .  S
Cu621       N631   2.084       .  S
Cu622       N624   2.082       .  S
Cu622       N630   2.084       .  S
N623        N624   1.321       .  A
N623        C627   1.342       .  A
N624        C625   1.350       .  A
C625        C626   1.388       .  A
C625        H628   1.082       .  S
C626        C627   1.386       .  A
C627        H629   1.081       .  S
N630        C634   1.346       .  A
N631        C632   1.346       .  A
C632        C633   1.380       .  A
C632        H635   1.082       .  S
C634        H636   1.082       .  S
C637        C638   1.409       .  A
C637        C642   1.399   1_545  A
C637        H644   1.077       .  S
C638        C639   1.419   1_545  A
C639        C640   1.399       .  A
C639       Br646   1.926       .  S
C640        C641   1.409       .  A
C640        H645   1.078       .  S
C641        C642   1.419       .  A
C642       Br643   1.926       .  S
C647        C648   1.409       .  A
C647        C652   1.399       .  A
C647        H654   1.077       .  S
C649        C650   1.399       .  A
C649       Br656   1.926       .  S
C650        H655   1.077       .  S
C651        C652   1.419       .  A
