geometry optimzed in LAMMPS
_audit_creation_date              2020-11-30 
_audit_creation_method            'lammps2cif' 
_symmetry_space_group_name_H-M    'P1' 
_symmetry_Int_Tables_number       1 
_symmetry_cell_setting            triclinic 
loop_ 
_symmetry_equiv_pos_as_xyz 
  x,y,z 
_cell_length_a                    41.76252443 
_cell_length_b                    42.812698235278184 
_cell_length_c                    42.080596275561945 
_cell_angle_alpha                 88.77158254588649 
_cell_angle_beta                  88.73805671218786 
_cell_angle_gamma                 91.72593618870884 
loop_ 
_atom_site_label 
_atom_site_type_symbol 
_atom_site_fract_x 
_atom_site_fract_y 
_atom_site_fract_z 
_atom_site_charge 
C1          C  0.48301573  0.10323336  0.27168751     0.84900
C2          C  0.45257770  0.12228180  0.27028066    -0.55300
C3          C  0.45002928  0.13992922  0.24297351     0.07900
C4          C  0.97857521  0.13590678  0.21888088     0.18800
C5          C  0.48215953  0.08320215  0.24179554    -0.56000
C6          C  0.48099697  0.09989517  0.21370779     0.08000
C7          C  0.01025320  0.12674317  0.26554583    -0.55500
C8          C  0.00818229  0.14406952  0.23868022     0.08500
H9          H  0.43504182  0.12254888  0.28971718     0.13100
H10         H  0.97739613  0.15047675  0.19685947    -0.01200
H11         H  0.48241867  0.05795503  0.24260910     0.13400
H12         H  0.03055834  0.12917542  0.28123737     0.13200
O13         O  0.03185029  0.04689601  0.41112305    -0.81700
O14         O  0.37627572  0.46666126  0.47380129    -0.83200
O15         O  0.45489896  0.47953170  0.38457151    -0.80200
O16         O  0.42738864  0.06250452  0.43213184    -0.78600
O17         O  0.43496035  0.08227349  0.48166971    -0.80400
O18         O  0.48861761  0.44041209  0.39768314    -0.81400
O19         O  0.39116646  0.49847513  0.43140006    -0.82700
O20         O  0.48018929  0.03923951  0.39494971    -0.83000
Eu21       Eu  0.44893286  0.00990902  0.43326025     2.39200
O22         O  0.42800723  0.01205343  0.48485539    -0.90500
O23         O  0.50080496  0.49086649  0.43405417    -0.94100
C24         C  0.50901217  0.04963975  0.39112859     1.00600
C25         C  0.37002162  0.48295703  0.44854369     1.00400
C26         C  0.47267622  0.45643387  0.37755787     1.00400
C27         C  0.42583727  0.08421968  0.45275512     0.98200
H28         H  0.43235068  0.44544200  0.43942779     0.28000
O29         O  0.44592470  0.45809633  0.45260034    -1.02900
H30         H  0.48500951  0.06252523  0.45330390     0.28000
O31         O  0.48306608  0.04194504  0.46305569    -1.05400
O32         O  0.42641909  0.43377103  0.05752783    -0.82600
O33         O  0.08305429  0.01270622  0.49556034    -0.82200
O34         O  0.46163985  0.39312381  0.45734834    -0.80600
O35         O  0.40721863  0.04061253  0.04038081    -0.83900
O36         O  0.49803998  0.09223213  0.00673117    -0.81800
O37         O  0.05348696  0.44441786  0.42709136    -0.80400
O38         O  0.03458285  0.42096977  0.03700831    -0.82000
O39         O  0.00584518  0.01163274  0.08587141    -0.83900
O40         O  0.02789172  0.40363470  0.48621961    -0.80600
O41         O  0.47613852  0.05250831  0.06902854    -0.83300
O42         O  0.41886683  0.40596682  0.48872425    -0.79000
O43         O  0.07237590  0.49481224  0.43232022    -0.79100
O44         O  0.04155910  0.07733426  0.47762036    -0.78700
O45         O  0.38903485  0.48970155  0.03626856    -0.82200
O46         O  0.47713775  0.44285629  0.07582338    -0.81600
O47         O  0.06864543  0.48316247  0.03967297    -0.80000
Eu48       Eu  0.42574629  0.46031027  0.00509696     2.39800
Eu49       Eu  0.03460043  0.02239414  0.46478660     2.39600
Eu50       Eu  0.49878803  0.43990715  0.45437778     2.38400
Eu51       Eu  0.46186858  0.04466777  0.01461610     2.39900
Eu52       Eu  0.01053819  0.47408520  0.03932644     2.39800
O53         O  0.01447044  0.02553119  0.01754895    -0.94400
O54         O  0.47810363  0.44209440  0.50692057    -0.93300
C55         C  0.44845721  0.43128808  0.07834101     1.00800
C56         C  0.08963402  0.99677339  0.02088784     0.99500
C57         C  0.43432399  0.38652979  0.47160975     0.98900
C58         C  0.38629518  0.01793813  0.04567067     1.00900
C59         C  0.02534369  0.09809359  0.49208607     0.99800
C60         C  0.07492600  0.46687247  0.42237130     0.98700
C61         C  0.03813508  0.40079178  0.01464260     0.98700
C62         C  0.49172726  0.03810837  0.09049029     1.01300
H63         H  0.05119686  0.46229488  0.48658704     0.28700
O64         O  0.03046912  0.47158509  0.48665057    -1.06500
H65         H  0.44935585  0.49420530  0.05742843     0.30800
O66         O  0.45858114  0.49328716  0.03626533    -1.09100
C67         C  0.21036217  0.04621021  0.11932388     0.84900
C68         C  0.19332615  0.03622814  0.08953571    -0.55300
C69         C  0.20537864  0.01071567  0.07564348     0.07900
C70         C  0.23381095  0.49698506  0.09340631     0.18800
C71         C  0.20861744  0.01661309  0.14132157    -0.56000
C72         C  0.22095024  0.49053955  0.12785417     0.08000
C73         C  0.24573966  0.05006217  0.10952636    -0.55500
C74         C  0.25806971  0.02463019  0.09566801     0.08500
H75         H  0.17185075  0.04730826  0.08121740     0.13100
H76         H  0.24339345  0.47667968  0.08086065    -0.01200
H77         H  0.19881714  0.01622246  0.16533079     0.13400
H78         H  0.25990450  0.07133133  0.11326581     0.13200
O79         O  0.14886479  0.20234847  0.26460340    -0.81700
O80         O  0.22566824  0.28800583  0.12092899    -0.83200
O81         O  0.13201015  0.27292307  0.19158541    -0.80200
O82         O  0.17785803  0.18999483  0.16380245    -0.78600
O83         O  0.22619778  0.16860953  0.17434057    -0.80400
O84         O  0.14265661  0.30888775  0.22975013    -0.81400
O85         O  0.18184392  0.25591732  0.13124113    -0.82700
O86         O  0.13729277  0.21176019  0.21227181    -0.83000
Eu87       Eu  0.17969113  0.24161656  0.18783588     2.39200
O88         O  0.23244499  0.23939658  0.16988542    -0.90500
O89         O  0.17725951  0.25794680  0.24085094    -0.94100
C90         C  0.13054076  0.20063048  0.24002523     1.00600
C91         C  0.20049571  0.27237943  0.11227367     1.00400
C92         C  0.12388926  0.29442552  0.21076905     1.00400
C93         C  0.19775086  0.16762435  0.16330319     0.98200
H94         H  0.18783534  0.30676340  0.17616326     0.28000
O95         O  0.19990100  0.29317980  0.18962986    -1.02900
H96         H  0.19589790  0.18693407  0.22270365     0.28000
O97         O  0.20623420  0.20743282  0.22238274    -1.05400
O98         O  0.30699160  0.31575807  0.17759091    -0.82600
O99         O  0.23495908  0.23069356  0.32535640    -0.82200
O100        O  0.20602534  0.35710850  0.20971523    -0.80600
O101        O  0.28639177  0.21109090  0.14970636    -0.83900
O102        O  0.25164024  0.15616451  0.23878565    -0.81800
O103        O  0.17031391  0.30353832  0.29704004    -0.80400
O104        O  0.27939544  0.32607572  0.28207558    -0.82000
O105        O  0.32845385  0.23687110  0.25279764    -0.83900
O106        O  0.22882868  0.34430287  0.27539541    -0.80600
O107        O  0.31453486  0.19832483  0.21838354    -0.83300
O108        O  0.24019210  0.34576983  0.16865314    -0.79000
O109        O  0.17115362  0.25192949  0.31268064    -0.79100
O110        O  0.21891261  0.16931697  0.28039219    -0.78700
O111        O  0.28641185  0.26304325  0.13553872    -0.82200
O112        O  0.32218277  0.30354273  0.22828149    -0.81600
O113        O  0.28044793  0.26027759  0.31353863    -0.80000
Eu114      Eu  0.25368755  0.29079571  0.17230596     2.39800
Eu115      Eu  0.20436916  0.22431320  0.27502420     2.39600
Eu116      Eu  0.19876756  0.30865813  0.24340989     2.38400
Eu117      Eu  0.25933756  0.20472994  0.20374301     2.39900
Eu118      Eu  0.28168524  0.27314994  0.25716319     2.39800
O119        O  0.25834590  0.22221319  0.25682244    -0.94400
O120        O  0.25241291  0.30720387  0.22511012    -0.93300
C121        C  0.32690494  0.31598792  0.20054684     1.00800
C122        C  0.26102698  0.24566370  0.33326865     0.99500
C123        C  0.22275734  0.36479819  0.18425419     0.98900
C124        C  0.29364848  0.23464344  0.13052019     1.00900
C125        C  0.23580478  0.14943086  0.26519908     0.99800
C126        C  0.16345924  0.28042912  0.31688992     0.98700
C127        C  0.25738163  0.34659291  0.28589183     0.98700
C128        C  0.33476174  0.21227818  0.23625945     1.01300
H129        H  0.22762869  0.28304402  0.29627906     0.28700
O130        O  0.22811933  0.27478177  0.27516232    -1.06500
H131        H  0.30359712  0.25508567  0.19655019     0.30800
O132        O  0.28188467  0.25577876  0.20466814    -1.09100
C133        C  0.08564183  0.22425175  0.48227143     0.84900
C134        C  0.11742934  0.22446601  0.00008675    -0.55300
C135        C  0.13531351  0.25170858  0.99706839     0.07900
C136        C  0.12021470  0.27591314  0.47492501     0.18800
C137        C  0.06878374  0.25370254  0.49435519    -0.56000
C138        C  0.08706132  0.28098588  0.49083933     0.08000
C139        C  0.09492584  0.23264700  0.44755632    -0.55500
C140        C  0.11296891  0.25957605  0.44330210     0.08500
H141        H  0.12317647  0.20585675  0.01677043     0.13100
H142        H  0.13603653  0.29690460  0.47147990    -0.01200
H143        H  0.04485251  0.25322638  0.50471290     0.13400
H144        H  0.08795547  0.21806606  0.42790637     0.13200
C145        C  0.48079125  0.39482762  0.25815865     0.84900
C146        C  0.50967244  0.37380206  0.25429172    -0.55300
C147        C  0.50724885  0.35367653  0.22989147     0.07900
C148        C  0.47656901  0.35623402  0.21126773     0.18800
C149        C  0.47731686  0.41101601  0.22540570    -0.56000
C150        C  0.47456520  0.39057578  0.20085037     0.08000
C151        C  0.45196216  0.37155481  0.26090530    -0.55500
C152        C  0.44904011  0.35244880  0.23547062     0.08500
H153        H  0.03030292  0.37372887  0.26935690     0.13100
H154        H  0.47483694  0.33895185  0.19209733    -0.01200
H155        H  0.47504046  0.43609283  0.22243667     0.13400
H156        H  0.43283980  0.37345147  0.27861947     0.13200
C157        C  0.37306343  0.20380497  0.45841799     0.84900
C158        C  0.34476528  0.21025902  0.43749540    -0.55300
C159        C  0.32723495  0.23483177  0.44630184     0.07900
C160        C  0.34055445  0.25208234  0.47530949     0.18800
C161        C  0.39307982  0.23476129  0.45739398    -0.56000
C162        C  0.37613667  0.26054056  0.46595681     0.08000
C163        C  0.35935135  0.20129231  0.49236962    -0.55500
C164        C  0.34243108  0.22624925  0.50157918     0.08500
H165        H  0.33923143  0.19654668  0.41673884     0.13100
H166        H  0.32567265  0.27192359  0.48217001    -0.01200
H167        H  0.41825349  0.23618411  0.45086424     0.13400
H168        H  0.36349265  0.18149291  0.00821260     0.13200
C169        C  0.23416443  0.02516132  0.33075654     0.84900
C170        C  0.25521705  0.02725071  0.36026692    -0.55300
C171        C  0.25424008  0.50109565  0.37991325     0.07900
C172        C  0.23072933  0.47551990  0.36834337     0.18800
C173        C  0.24490615  0.49503026  0.31471727    -0.56000
C174        C  0.24318786  0.46877451  0.33441026     0.08000
C175        C  0.20028512  0.01652287  0.34381331    -0.55500
C176        C  0.19806137  0.49073007  0.36346724     0.08500
H177        H  0.27180426  0.04689651  0.36327241     0.13100
H178        H  0.22886540  0.45503918  0.38478193    -0.01200
H179        H  0.25263853  0.49412158  0.29004695     0.13400
H180        H  0.17954607  0.03000438  0.33786306     0.13200
C181        C  0.16653156  0.29139958  0.37454498    -0.14900
C182        C  0.14741640  0.28566985  0.34803988     0.07300
C183        C  0.11571380  0.27462082  0.35342126    -0.14900
C184        C  0.10401518  0.26778917  0.38443720    -0.14900
C185        C  0.12384205  0.27151791  0.41088702     0.07300
C186        C  0.15485240  0.28454855  0.40562125    -0.14900
H187        H  0.19144911  0.29870209  0.37105445     0.11200
H188        H  0.10074387  0.26908964  0.33347691     0.11200
H189        H  0.07981357  0.25826420  0.38760475     0.11200
H190        H  0.17087017  0.28741466  0.42529859     0.11200
C191        C  0.19561435  0.24313021  0.06239107    -0.14900
C192        C  0.19236015  0.27138293  0.07833425     0.07300
C193        C  0.17485747  0.29518255  0.06419449    -0.14900
C194        C  0.15869310  0.28980262  0.03582512    -0.14900
C195        C  0.15941652  0.26036524  0.02141319     0.07300
C196        C  0.17944416  0.23770641  0.03414782    -0.14900
H197        H  0.20883203  0.22435898  0.07305917     0.11200
H198        H  0.17158095  0.31694428  0.07634744     0.11200
H199        H  0.14345042  0.30780612  0.02686165     0.11200
H200        H  0.18088145  0.21500050  0.02344064     0.11200
C201        C  0.28997329  0.27209050  0.37707575    -0.14900
C202        C  0.27005898  0.24708944  0.36709849     0.07300
C203        C  0.26229939  0.22251143  0.38866755    -0.14900
C204        C  0.27759142  0.22096236  0.41791659    -0.14900
C205        C  0.30065846  0.24400409  0.42594768     0.07300
C206        C  0.30509715  0.27058206  0.40633176    -0.14900
H207        H  0.29574879  0.29183237  0.36122972     0.11200
H208        H  0.24682608  0.20317213  0.38181321     0.11200
H209        H  0.27418764  0.20002425  0.43267371     0.11200
H210        H  0.32306033  0.28833978  0.41181028     0.11200
C211        C  0.30485936  0.20273269  0.08215882    -0.14900
C212        C  0.30976067  0.23014469  0.09926008     0.07300
C213        C  0.32571905  0.25602350  0.08389884    -0.14900
C214        C  0.33531382  0.25504028  0.05198018    -0.14900
C215        C  0.32972588  0.22802814  0.03467805     0.07300
C216        C  0.31486334  0.20166509  0.05015063    -0.14900
H217        H  0.29215914  0.18269076  0.09305480     0.11200
H218        H  0.33005153  0.27754339  0.09641262     0.11200
H219        H  0.34762708  0.27522366  0.04101155     0.11200
H220        H  0.31053372  0.18037461  0.03727161     0.11200
C221        C  0.27392026  0.43160523  0.29941665    -0.14900
C222        C  0.25187615  0.43660691  0.32455245     0.07300
C223        C  0.23725394  0.41029435  0.34013273    -0.14900
C224        C  0.24315951  0.38016816  0.33003210    -0.14900
C225        C  0.26334894  0.37531219  0.30368177     0.07300
C226        C  0.27940667  0.40120168  0.28891192    -0.14900
H227        H  0.28605888  0.45115720  0.28710249     0.11200
H228        H  0.21942811  0.41267757  0.35884150     0.11200
H229        H  0.22951382  0.36069395  0.34098632     0.11200
H230        H  0.29420069  0.39813915  0.26780436     0.11200
C231        C  0.24688637  0.09047713  0.26414930    -0.14900
C232        C  0.23643075  0.11707003  0.28023517     0.07300
C233        C  0.22524910  0.11263561  0.31189637    -0.14900
C234        C  0.22465729  0.08322124  0.32703248    -0.14900
C235        C  0.23509180  0.05647915  0.31144824     0.07300
C236        C  0.24615413  0.06055944  0.27948781    -0.14900
H237        H  0.25538121  0.09271951  0.23968545     0.11200
H238        H  0.21698284  0.13215565  0.32545361     0.11200
H239        H  0.21602189  0.08135366  0.35148400     0.11200
H240        H  0.25443907  0.04097596  0.26618072     0.11200
C241        C  0.38364393  0.30905882  0.19351897    -0.14900
C242        C  0.35854289  0.32995005  0.19612847     0.07300
C243        C  0.36394610  0.35917457  0.20949174    -0.14900
C244        C  0.39326187  0.36620991  0.22303187    -0.14900
C245        C  0.41739402  0.34401485  0.22328356     0.07300
C246        C  0.41296905  0.31602712  0.20716243    -0.14900
H247        H  0.37939553  0.28596725  0.18409659     0.11200
H248        H  0.34450418  0.37515382  0.21237453     0.11200
H249        H  0.39686988  0.38876452  0.23379204     0.11200
H250        H  0.43177974  0.29917153  0.20613905     0.11200
C251        C  0.07546026  0.30114754  0.24308773    -0.14900
C252        C  0.09042380  0.30245163  0.21299023     0.07300
C253        C  0.07478674  0.31532935  0.18694482    -0.14900
C254        C  0.04565338  0.32994889  0.19183434    -0.14900
C255        C  0.03245315  0.33155834  0.22272225     0.07300
C256        C  0.04650262  0.31547943  0.24789904    -0.14900
H257        H  0.08720498  0.29072404  0.26326392     0.11200
H258        H  0.08625038  0.31629384  0.16358472     0.11200
H259        H  0.03497687  0.34218602  0.17215047     0.11200
H260        H  0.03617575  0.31588478  0.27172647     0.11200
C261        C  0.20039604  0.44976155  0.16914395    -0.14900
C262        C  0.22170521  0.45886157  0.14387585     0.07300
C263        C  0.24365214  0.43691606  0.13321562    -0.14900
C264        C  0.24396487  0.40688513  0.14661133    -0.14900
C265        C  0.22240540  0.39751300  0.17138243     0.07300
C266        C  0.20081887  0.41946811  0.18279622    -0.14900
H267        H  0.18283008  0.46567134  0.17797281     0.11200
H268        H  0.26101308  0.44258959  0.11450691     0.11200
H269        H  0.26132477  0.39093757  0.13732812     0.11200
H270        H  0.18387792  0.41309036  0.20185333     0.11200
C271        C  0.19953256  0.10245716  0.10860452    -0.14900
C272        C  0.19775313  0.07693113  0.13048469     0.07300
C273        C  0.18724998  0.08196280  0.16182171    -0.14900
C274        C  0.18257046  0.11241773  0.17177585    -0.14900
C275        C  0.18795744  0.13781857  0.15048393     0.07300
C276        C  0.19472993  0.13266800  0.11854975    -0.14900
H277        H  0.20728543  0.09924305  0.08418057     0.11200
H278        H  0.18501842  0.06317377  0.17930505     0.11200
H279        H  0.17784620  0.11640218  0.19677206     0.11200
H280        H  0.19965990  0.15213741  0.10209973     0.11200
C281        C  0.45980126  0.38771886  0.11298661    -0.14900
C282        C  0.44206963  0.41448672  0.10808841     0.07300
C283        C  0.43190421  0.43171702  0.13417918    -0.14900
C284        C  0.44210328  0.42389113  0.16461845    -0.14900
C285        C  0.46283839  0.39896224  0.16903561     0.11100
C286        C  0.47059858  0.38033620  0.14308689    -0.14900
H287        H  0.46874246  0.37485753  0.09289759     0.11200
H288        H  0.41890628  0.45299271  0.13058895     0.11200
H289        H  0.43463158  0.43794170  0.18436878     0.11200
H290        H  0.48662075  0.36111186  0.14543603     0.11200
C291        C  0.45044743  0.44756799  0.32347108    -0.14900
C292        C  0.47619525  0.44741785  0.34422498     0.07300
C293        C  0.50564489  0.43609380  0.33375721    -0.14900
C294        C  0.50834688  0.42158166  0.30466933    -0.14900
C295        C  0.48133318  0.41742908  0.28561593     0.07300
C296        C  0.45311724  0.43285926  0.29417705    -0.14900
H297        H  0.42775555  0.45706885  0.33073251     0.11200
H298        H  0.02640001  0.43732472  0.34876551     0.11200
H299        H  0.03152523  0.41302497  0.29819250     0.11200
H300        H  0.43233556  0.43146029  0.27926254     0.11200
C301        C  0.10833944  0.47174514  0.37288884    -0.14900
C302        C  0.10542948  0.46188156  0.40487046     0.07300
C303        C  0.13360223  0.45838336  0.42220571    -0.14900
C304        C  0.16388643  0.46597660  0.40830360    -0.14900
C305        C  0.16659958  0.47795435  0.37694699     0.07300
C306        C  0.13850752  0.47958210  0.35907375    -0.14900
H307        H  0.08717794  0.97528572  0.35912558     0.11200
H308        H  0.13199057  0.45215346  0.44729670     0.11200
H309        H  0.18490513  0.46460252  0.42281783     0.11200
H310        H  0.13986476  0.98753020  0.33444224     0.11200
C311        C  0.31837161  0.46019929  0.42778852    -0.14900
C312        C  0.33647231  0.48588571  0.43839946     0.07300
C313        C  0.32445902  0.51594372  0.43429748    -0.14900
C314        C  0.29615191  0.52058853  0.41789735    -0.14900
C315        C  0.27950946  0.49533747  0.40421557     0.07300
C316        C  0.29024362  0.46487420  0.41068993    -0.14900
H317        H  0.32724504  0.43680269  0.43051006     0.11200
H318        H  0.33791701  0.53612867  0.44252166     0.11200
H319        H  0.28831293  0.54426632  0.41457257     0.11200
H320        H  0.27848061  0.44466371  0.40064023     0.11200
C321        C  0.14811807  0.51093534  0.01254996    -0.14900
C322        C  0.12366147  0.99288262  0.02851732     0.07300
C323        C  0.13210318  0.97190444  0.05293410    -0.14900
C324        C  0.16312403  0.97264749  0.06449288    -0.14900
C325        C  0.18563165  0.99487528  0.05226445     0.07300
C326        C  0.17891953  0.01173999  0.02436629    -0.14900
H327        H  0.14265089  0.52637503  0.49282962     0.11200
H328        H  0.11421963  0.95668053  0.06481551     0.11200
H329        H  0.16790558  0.95947136  0.08606629     0.11200
H330        H  0.19616052  0.52948262  0.01498020     0.11200
C331        C  0.33757732  0.04931318  0.05599247    -0.14900
C332        C  0.35588153  0.02318663  0.06275703     0.07300
C333        C  0.34246696  0.49869434  0.08189364    -0.14900
C334        C  0.31080632  0.49927016  0.09276313    -0.14900
C335        C  0.29179324  0.02444624  0.08452293     0.07300
C336        C  0.30568101  0.04998577  0.06696793    -0.14900
H337        H  0.34730349  0.06827126  0.04091092     0.11200
H338        H  0.35632425  0.47842279  0.08767224     0.11200
H339        H  0.30118438  0.48008011  0.10747279     0.11200
H340        H  0.29151182  0.06992882  0.06084697     0.11200
C341        C  0.37984638  0.11704484  0.44664733    -0.14900
C342        C  0.41277645  0.11387279  0.44352625     0.07300
C343        C  0.43325120  0.14041859  0.44051357    -0.14900
C344        C  0.42087989  0.17024638  0.44297881    -0.14900
C345        C  0.38796727  0.17344641  0.44928814     0.07300
C346        C  0.36755762  0.14653774  0.44963914    -0.14900
H347        H  0.36397250  0.09665315  0.44972350     0.11200
H348        H  0.45897322  0.13793247  0.43863422     0.11200
H349        H  0.43743602  0.19009949  0.44210066     0.11200
H350        H  0.34206541  0.14825919  0.45434430     0.11200
C351        C  0.39017207  0.34679660  0.48501188    -0.14900
C352        C  0.41925561  0.35458856  0.46873196     0.07300
C353        C  0.43354526  0.33145569  0.45048540    -0.14900
C354        C  0.41944374  0.30129297  0.44911188    -0.14900
C355        C  0.39076037  0.29319495  0.46622434     0.07300
C356        C  0.37626341  0.31670198  0.48385866    -0.14900
H357        H  0.37817980  0.36388958  0.49924126     0.11200
H358        H  0.45571975  0.33657876  0.43732328     0.11200
H359        H  0.43116592  0.28451535  0.43437000     0.11200
H360        H  0.35442691  0.31205667  0.49753129     0.11200
C361        C  0.02357684  0.15643149  0.50289486    -0.14900
C362        C  0.03954046  0.13065519  0.49062696     0.07300
C363        C  0.06969396  0.13620609  0.47558522    -0.14900
C364        C  0.08365003  0.16619315  0.47327517    -0.14900
C365        C  0.06806077  0.19216648  0.48550655     0.07300
C366        C  0.03762308  0.18682598  0.50038927    -0.14900
H367        H  0.50021987  0.15315030  0.51436346     0.11200
H368        H  0.08289277  0.11726025  0.46551872     0.11200
H369        H  0.10703859  0.16916574  0.46176411     0.11200
H370        H  0.02450282  0.20572073  0.51039245     0.11200
C371        C  0.04181729  0.34535428  0.53353235    -0.14900
C372        C  0.05639431  0.37232621  0.01939530     0.07300
C373        C  0.08280947  0.36909639  0.99879701    -0.14900
C374        C  0.09255239  0.33969649  0.48987007    -0.14900
C375        C  0.07711978  0.31230997  0.50236376     0.07300
C376        C  0.05241532  0.31556500  0.52546968    -0.14900
H377        H  0.02075094  0.34720112  0.54878121     0.11200
H378        H  0.09370292  0.38950548  0.98670437     0.11200
H379        H  0.11089487  0.33905290  0.47148531     0.11200
H380        H  0.04032355  0.29525483  0.53640615     0.11200
C381        C  0.97426673  0.09835373  0.15409435    -0.14900
C382        C  0.48524483  0.08436097  0.18201103     0.07300
C383        C  0.50060593  0.05534995  0.17928825    -0.14900
C384        C  0.50360417  0.04035267  0.14987490    -0.14900
C385        C  0.49171965  0.05405320  0.12212343     0.07300
C386        C  0.97750900  0.08359930  0.12481661    -0.14900
H387        H  0.96238054  0.12043926  0.15479007     0.11200
H388        H  0.51060212  0.04402784  0.19985505     0.11200
H389        H  0.51483339  0.01791359  0.14898500     0.11200
H390        H  0.96811697  0.09541377  0.10418026     0.11200
C391        C  0.50427485  0.05846862  0.30522392    -0.14900
C392        C  0.48952282  0.08759361  0.30326742     0.07300
C393        C  0.98879068  0.10625862  0.33045550    -0.14900
C394        C  0.00123008  0.09570534  0.35891669    -0.14900
C395        C  0.51398336  0.06597799  0.36110009     0.07300
C396        C  0.51602599  0.04765920  0.33402155    -0.14900
H397        H  0.50722363  0.04390913  0.28483277     0.11200
H398        H  0.97914036  0.12945276  0.32942513     0.11200
H399        H  0.99825718  0.10957478  0.37997839     0.11200
H400        H  0.52455551  0.02402527  0.33575644     0.11200
C401        C  0.40566227  0.16349904  0.21170252    -0.14900
C402        C  0.42346383  0.16241562  0.23946563     0.07300
C403        C  0.41385384  0.18089583  0.26522980    -0.14900
C404        C  0.38615658  0.19877759  0.26382692    -0.14900
C405        C  0.36708098  0.19812116  0.23681665     0.07300
C406        C  0.37771702  0.18087006  0.21049170    -0.14900
H407        H  0.41238815  0.14959917  0.19155110     0.11200
H408        H  0.42739008  0.18083838  0.28688542     0.11200
H409        H  0.37881865  0.21175759  0.28441497     0.11200
H410        H  0.36382263  0.18006773  0.18907265     0.11200
C411        C  0.06112028  0.15165714  0.21428738    -0.14900
C412        C  0.03563346  0.16489995  0.23074590     0.07300
C413        C  0.04189444  0.18974002  0.25133830    -0.14900
C414        C  0.07338664  0.19994215  0.25673382    -0.14900
C415        C  0.09891803  0.18529264  0.24169750     0.07300
C416        C  0.09248623  0.16171233  0.21978342    -0.14900
H417        H  0.05692994  0.13169882  0.19934432     0.11200
H418        H  0.02253342  0.19946213  0.26513774     0.11200
H419        H  0.07780244  0.21942975  0.27221863     0.11200
H420        H  0.11192394  0.15125387  0.20670030     0.11200
C421        C  0.48300651  0.10322900  0.77169020     0.84900
C422        C  0.45256785  0.12227514  0.77028064    -0.55300
C423        C  0.45002209  0.13992410  0.74297459     0.07900
C424        C  0.97857181  0.13590355  0.71888739     0.18800
C425        C  0.48215392  0.08319863  0.74179875    -0.56000
C426        C  0.48099610  0.09989189  0.71371123     0.08000
C427        C  0.01024551  0.12674136  0.76555532    -0.55500
C428        C  0.00817621  0.14406844  0.73869010     0.08500
H429        H  0.43502865  0.12253870  0.78971444     0.13100
H430        H  0.97739354  0.15047507  0.69686711    -0.01200
H431        H  0.48241033  0.05795139  0.74261390     0.13400
H432        H  0.03054866  0.12917427  0.78124925     0.13200
O433        O  0.03184579  0.04689321  0.91111949    -0.81700
O434        O  0.37628219  0.46665667  0.97379089    -0.83200
O435        O  0.45491553  0.47953245  0.88457098    -0.80200
O436        O  0.42737752  0.06248443  0.93211450    -0.78600
O437        O  0.43493859  0.08225293  0.98165424    -0.80400
O438        O  0.48862980  0.44041024  0.89768668    -0.81400
O439        O  0.39117508  0.49847246  0.93139145    -0.82700
O440        O  0.48018495  0.03922287  0.89494129    -0.83000
Eu441      Eu  0.44893082  0.00989464  0.93325502     2.39200
O442        O  0.42800623  0.01204448  0.98484951    -0.90500
O443        O  0.50081130  0.49087108  0.93405554    -0.94100
C444        C  0.50900522  0.04963140  0.89112253     1.00600
C445        C  0.37002974  0.48295285  0.94853292     1.00400
C446        C  0.47269121  0.45643253  0.87756010     1.00400
C447        C  0.42581449  0.08419646  0.95273970     0.98200
H448        H  0.43235944  0.44544298  0.93942212     0.28000
O449        O  0.44593130  0.45809866  0.95259553    -1.02900
H450        H  0.48500100  0.06251955  0.95329301     0.28000
O451        O  0.48306148  0.04193946  0.96304572    -1.05400
O452        O  0.42641505  0.43377899  0.55753602    -0.82600
O453        O  0.08305682  0.01271224  0.99555221    -0.82200
O454        O  0.46165618  0.39312020  0.95734446    -0.80600
O455        O  0.40721900  0.04061605  0.54038656    -0.83900
O456        O  0.49804939  0.09223300  0.50673666    -0.81800
O457        O  0.05349366  0.44442616  0.92709856    -0.80400
O458        O  0.03458266  0.42096522  0.53700727    -0.82000
O459        O  0.00584735  0.01162641  0.58587800    -0.83900
O460        O  0.02788931  0.40363534  0.98622235    -0.80600
O461        O  0.47614541  0.05250584  0.56903706    -0.83300
O462        O  0.41888121  0.40596043  0.98871838    -0.79000
O463        O  0.07238238  0.49481988  0.93233276    -0.79100
O464        O  0.04154963  0.07733377  0.97761697    -0.78700
O465        O  0.38903030  0.48970832  0.53627208    -0.82200
O466        O  0.47713817  0.44285609  0.57582336    -0.81600
O467        O  0.06864532  0.48315285  0.53966817    -0.80000
Eu468      Eu  0.42574196  0.46031278  0.50510297     2.39800
Eu469      Eu  0.03459923  0.02239244  0.96478026     2.39600
Eu470      Eu  0.49879460  0.43991136  0.95437995     2.38400
Eu471      Eu  0.46187189  0.04467165  0.51462556     2.39900
Eu472      Eu  0.01053753  0.47407921  0.53932369     2.39800
O473        O  0.01447217  0.02553116  0.51755662    -0.94400
O474        O  0.47810824  0.44209737  0.00692120    -0.93300
C475        C  0.44845562  0.43129378  0.57834618     1.00800
C476        C  0.08963047  0.99676348  0.52089365     0.99500
C477        C  0.43434160  0.38652289  0.97160660     0.98900
C478        C  0.38629446  0.01794256  0.54567773     1.00900
C479        C  0.02533348  0.09809242  0.99208326     0.99800
C480        C  0.07493352  0.46688056  0.92238320     0.98700
C481        C  0.03813775  0.40078985  0.51463986     0.98700
C482        C  0.49173278  0.03810311  0.59049766     1.01300
H483        H  0.05119991  0.46230210  0.98659214     0.28700
O484        O  0.03047151  0.47159109  0.98665406    -1.06500
H485        H  0.44935847  0.49420464  0.55743156     0.30800
O486        O  0.45858257  0.49328536  0.53626804    -1.09100
C487        C  0.21034998  0.04621054  0.61930749     0.84900
C488        C  0.19332066  0.03622541  0.58951617    -0.55300
C489        C  0.20537909  0.01071337  0.57562716     0.07900
C490        C  0.23381058  0.49698601  0.59341158     0.18800
C491        C  0.20860612  0.01661276  0.64130525    -0.56000
C492        C  0.22095008  0.49053776  0.62785873     0.08000
C493        C  0.24572851  0.05006701  0.60951494    -0.55500
C494        C  0.25806446  0.02463591  0.59565996     0.08500
H495        H  0.17184325  0.04730027  0.58119577     0.13100
H496        H  0.24339529  0.47668174  0.58086555    -0.01200
H497        H  0.19880093  0.01622097  0.66531252     0.13400
H498        H  0.25988988  0.07133804  0.61325556     0.13200
O499        O  0.14885898  0.20235341  0.76460338    -0.81700
O500        O  0.22567672  0.28800838  0.62092192    -0.83200
O501        O  0.13201019  0.27292514  0.69157430    -0.80200
O502        O  0.17784811  0.18999750  0.66379246    -0.78600
O503        O  0.22618429  0.16860783  0.67433514    -0.80400
O504        O  0.14265520  0.30888039  0.72974823    -0.81400
O505        O  0.18185238  0.25591945  0.63123290    -0.82700
O506        O  0.13728953  0.21176571  0.71227095    -0.83000
Eu507      Eu  0.17968970  0.24161814  0.68782960     2.39200
O508        O  0.23244359  0.23939478  0.66987974    -0.90500
O509        O  0.17725845  0.25794517  0.74084705    -0.94100
C510        C  0.13053581  0.20063666  0.74002454     1.00600
C511        C  0.20050476  0.27238163  0.61226557     1.00400
C512        C  0.12388838  0.29442235  0.71076339     1.00400
C513        C  0.19773839  0.16762463  0.66329479     0.98200
H514        H  0.18783951  0.30676464  0.67615942     0.28000
O515        O  0.19990416  0.29317997  0.68962592    -1.02900
H516        H  0.19588948  0.18693645  0.72269947     0.28000
O517        O  0.20622784  0.20743419  0.72238016    -1.05400
O518        O  0.30699539  0.31575737  0.67759849    -0.82600
O519        O  0.23496206  0.23068706  0.82535496    -0.82200
O520        O  0.20602866  0.35710531  0.70971322    -0.80600
O521        O  0.28639623  0.21107890  0.64970846    -0.83900
O522        O  0.25162573  0.15615835  0.73877842    -0.81800
O523        O  0.17032100  0.30354127  0.79704451    -0.80400
O524        O  0.27938826  0.32606962  0.78207740    -0.82000
O525        O  0.32844453  0.23686156  0.75279673    -0.83900
O526        O  0.22882545  0.34430330  0.77538930    -0.80600
O527        O  0.31452447  0.19831448  0.71838379    -0.83300
O528        O  0.24019882  0.34576792  0.66865291    -0.79000
O529        O  0.17115849  0.25193279  0.81268662    -0.79100
O530        O  0.21890265  0.16931206  0.78038819    -0.78700
O531        O  0.28641735  0.26303032  0.63553653    -0.82200
O532        O  0.32217819  0.30354534  0.72829255    -0.81600
O533        O  0.28045210  0.26026711  0.81353274    -0.80000
Eu534      Eu  0.25369212  0.29079231  0.67230135     2.39800
Eu535      Eu  0.20436502  0.22431160  0.77502432     2.39600
Eu536      Eu  0.19876670  0.30865540  0.74340794     2.38400
Eu537      Eu  0.25932962  0.20472495  0.70373923     2.39900
Eu538      Eu  0.28168026  0.27314428  0.75716128     2.39800
O539        O  0.25833987  0.22220798  0.75681931    -0.94400
O540        O  0.25241115  0.30719744  0.72510670    -0.93300
C541        C  0.32690386  0.31599124  0.70055901     1.00800
C542        C  0.26103325  0.24565377  0.83326435     0.99500
C543        C  0.22276305  0.36479575  0.68425376     0.98900
C544        C  0.29365614  0.23462979  0.63052134     1.00900
C545        C  0.23579200  0.14942499  0.76519281     0.99800
C546        C  0.16346793  0.28043346  0.81689700     0.98700
C547        C  0.25737666  0.34658998  0.78588986     0.98700
C548        C  0.33475108  0.21226743  0.73626016     1.01300
H549        H  0.22762874  0.28304167  0.79628109     0.28700
O550        O  0.22811657  0.27477966  0.77516412    -1.06500
H551        H  0.30359594  0.25507935  0.69655047     0.30800
O552        O  0.28188264  0.25577274  0.70466607    -1.09100
C553        C  0.08563326  0.22425097  0.98227185     0.84900
C554        C  0.11744276  0.22446692  0.50007827    -0.55300
C555        C  0.13532534  0.25171047  0.49705767     0.07900
C556        C  0.12020938  0.27591135  0.97493142     0.18800
C557        C  0.06877314  0.25370300  0.99434957    -0.56000
C558        C  0.08705256  0.28098581  0.99083755     0.08000
C559        C  0.09492647  0.23264499  0.94755800    -0.55500
C560        C  0.11297120  0.25957383  0.94330747     0.08500
H561        H  0.12319389  0.20585746  0.51676005     0.13100
H562        H  0.13603275  0.29690205  0.97148890    -0.01200
H563        H  0.04483931  0.25322759  0.00470106     0.13400
H564        H  0.08795989  0.21806472  0.92790622     0.13200
C565        C  0.48080172  0.39482593  0.75816226     0.84900
C566        C  0.50968282  0.37380224  0.75428836    -0.55300
C567        C  0.50725432  0.35367703  0.72988832     0.07900
C568        C  0.47657123  0.35623555  0.71126974     0.18800
C569        C  0.47732118  0.41101669  0.72541145    -0.56000
C570        C  0.47456569  0.39057824  0.70085515     0.08000
C571        C  0.45197367  0.37155225  0.76091281    -0.55500
C572        C  0.44904665  0.35244855  0.73547724     0.08500
H573        H  0.03032011  0.37373537  0.76934288     0.13100
H574        H  0.47483548  0.33895412  0.69209904    -0.01200
H575        H  0.47504521  0.43609377  0.72244474     0.13400
H576        H  0.43285490  0.37344686  0.77863114     0.13200
C577        C  0.37306846  0.20379251  0.95843910     0.84900
C578        C  0.34477098  0.21023878  0.93751487    -0.55300
C579        C  0.32724802  0.23482164  0.94630378     0.07900
C580        C  0.34056865  0.25208462  0.97530341     0.18800
C581        C  0.39309273  0.23474530  0.95739883    -0.56000
C582        C  0.37615380  0.26053137  0.96595223     0.08000
C583        C  0.35935969  0.20130270  0.99239314    -0.55500
C584        C  0.34243780  0.22626378  0.00158566     0.08500
H585        H  0.33923347  0.19651317  0.91676818     0.13100
H586        H  0.32569114  0.27193326  0.98215164    -0.01200
H587        H  0.41826969  0.23616007  0.95087862     0.13400
H588        H  0.36348844  0.18147475  0.50817744     0.13200
C589        C  0.23417153  0.02515730  0.83075535     0.84900
C590        C  0.25522438  0.02724521  0.86026636    -0.55300
C591        C  0.25424800  0.50109571  0.87990182     0.07900
C592        C  0.23073242  0.47552076  0.86833967     0.18800
C593        C  0.24489661  0.49502745  0.81470918    -0.56000
C594        C  0.24318190  0.46877290  0.83440419     0.08000
C595        C  0.20029196  0.01652044  0.84381102    -0.55500
C596        C  0.19806478  0.49073303  0.86347131     0.08500
H597        H  0.27181266  0.04689007  0.86327196     0.13100
H598        H  0.22887054  0.45504058  0.88477930    -0.01200
H599        H  0.25262324  0.49411705  0.79003724     0.13400
H600        H  0.17955341  0.03000241  0.83785994     0.13200
C601        C  0.16654696  0.29139070  0.87455631    -0.14900
C602        C  0.14742889  0.28567573  0.84804957     0.07300
C603        C  0.11572169  0.27463956  0.85342963    -0.14900
C604        C  0.10402124  0.26780407  0.88444441    -0.14900
C605        C  0.12384977  0.27151809  0.91089479     0.07300
C606        C  0.15486510  0.28453785  0.90563169    -0.14900
H607        H  0.19146745  0.29868325  0.87106723     0.11200
H608        H  0.10074877  0.26911986  0.83348435     0.11200
H609        H  0.07981619  0.25828758  0.88761053     0.11200
H610        H  0.17088359  0.28739347  0.92531006     0.11200
C611        C  0.19562642  0.24313338  0.56238087    -0.14900
C612        C  0.19237033  0.27138533  0.57832519     0.07300
C613        C  0.17486817  0.29518497  0.56418454    -0.14900
C614        C  0.15870560  0.28980556  0.53581385    -0.14900
C615        C  0.15942984  0.26036843  0.52140129     0.07300
C616        C  0.17945820  0.23771015  0.53413614    -0.14900
H617        H  0.20884408  0.22436219  0.57304902     0.11200
H618        H  0.17159052  0.31694637  0.57633775     0.11200
H619        H  0.14346309  0.30780909  0.52685015     0.11200
H620        H  0.18089677  0.21500461  0.52342838     0.11200
C621        C  0.28999696  0.27207386  0.87706388    -0.14900
C622        C  0.27007358  0.24707700  0.86709191     0.07300
C623        C  0.26231373  0.22250072  0.88866268    -0.14900
C624        C  0.27760897  0.22095118  0.91791000    -0.14900
C625        C  0.30067925  0.24399102  0.92593847     0.07300
C626        C  0.30512468  0.27056458  0.90631762    -0.14900
H627        H  0.29577483  0.29181365  0.86121586     0.11200
H628        H  0.24683549  0.20316387  0.88181164     0.11200
H629        H  0.27420166  0.20001537  0.93266995     0.11200
H630        H  0.32309236  0.28831924  0.91179257     0.11200
C631        C  0.30487878  0.20271193  0.58216546    -0.14900
C632        C  0.30977498  0.23012701  0.59926389     0.07300
C633        C  0.32573394  0.25600435  0.58390065    -0.14900
C634        C  0.33532649  0.25501962  0.55198093    -0.14900
C635        C  0.32973659  0.22800683  0.53467955     0.07300
C636        C  0.31488145  0.20164237  0.55015639    -0.14900
H637        H  0.29218054  0.18266981  0.59306332     0.11200
H638        H  0.33006478  0.27752561  0.59641250     0.11200
H639        H  0.34763473  0.27520460  0.54100853     0.11200
H640        H  0.31055190  0.18035097  0.53727892     0.11200
C641        C  0.27391327  0.43160244  0.79941220    -0.14900
C642        C  0.25186912  0.43660479  0.82454754     0.07300
C643        C  0.23724741  0.41029274  0.84012924    -0.14900
C644        C  0.24315331  0.38016603  0.83002958    -0.14900
C645        C  0.26334387  0.37530922  0.80368002     0.07300
C646        C  0.27940076  0.40119860  0.78890914    -0.14900
H647        H  0.28605140  0.45115426  0.78709730     0.11200
H648        H  0.21942210  0.41267720  0.85883843     0.11200
H649        H  0.22950747  0.36069204  0.84098404     0.11200
H650        H  0.29419497  0.39813562  0.76780181     0.11200
C651        C  0.24687070  0.09047016  0.76414074    -0.14900
C652        C  0.23642055  0.11706405  0.78022889     0.07300
C653        C  0.22525163  0.11263137  0.81189428    -0.14900
C654        C  0.22466766  0.08321809  0.82703259    -0.14900
C655        C  0.23509719  0.05647511  0.81144641     0.07300
C656        C  0.24614617  0.06055347  0.77948147    -0.14900
H657        H  0.25535543  0.09271098  0.73967354     0.11200
H658        H  0.21699020  0.13215219  0.82545328     0.11200
H659        H  0.21604128  0.08135189  0.85148711     0.11200
H660        H  0.25442499  0.04096900  0.76617206     0.11200
C661        C  0.38364293  0.30906289  0.69353293    -0.14900
C662        C  0.35854248  0.32995425  0.69614653     0.07300
C663        C  0.36394695  0.35917642  0.70951508    -0.14900
C664        C  0.39326537  0.36621070  0.72305088    -0.14900
C665        C  0.41739787  0.34401580  0.72329588     0.07300
C666        C  0.41296979  0.31602931  0.70717362    -0.14900
H667        H  0.37939341  0.28597257  0.68410802     0.11200
H668        H  0.34450541  0.37515530  0.71240257     0.11200
H669        H  0.39687536  0.38876427  0.73381274     0.11200
H670        H  0.43178005  0.29917351  0.70614613     0.11200
C671        C  0.07546260  0.30115091  0.74308448    -0.14900
C672        C  0.09042291  0.30244774  0.71298550     0.07300
C673        C  0.07478183  0.31531632  0.68693786    -0.14900
C674        C  0.04564952  0.32993802  0.69182643    -0.14900
C675        C  0.03245482  0.33155792  0.72271555     0.07300
C676        C  0.04650581  0.31548391  0.74789465    -0.14900
H677        H  0.08720942  0.29073283  0.76326228     0.11200
H678        H  0.08624228  0.31627332  0.66357623     0.11200
H679        H  0.03497050  0.34216957  0.67214041     0.11200
H680        H  0.03618178  0.31589560  0.77172294     0.11200
C681        C  0.20039466  0.44975583  0.66914166    -0.14900
C682        C  0.22170765  0.45885944  0.64387829     0.07300
C683        C  0.24366019  0.43691766  0.63322115    -0.14900
C684        C  0.24397492  0.40688643  0.64661656    -0.14900
C685        C  0.22241151  0.39751094  0.67138333     0.07300
C686        C  0.20081936  0.41946259  0.68279326    -0.14900
H687        H  0.18282414  0.46566273  0.67796705     0.11200
H688        H  0.26102354  0.44259483  0.61451536     0.11200
H689        H  0.26133887  0.39094123  0.63733656     0.11200
H690        H  0.18387496  0.41308206  0.70184650     0.11200
C691        C  0.19951038  0.10245760  0.60859002    -0.14900
C692        C  0.19773535  0.07693029  0.63046886     0.07300
C693        C  0.18723724  0.08196127  0.66180785    -0.14900
C694        C  0.18255968  0.11241596  0.67176469    -0.14900
C695        C  0.18794347  0.13781840  0.65047403     0.07300
C696        C  0.19470988  0.13266863  0.61853815    -0.14900
H697        H  0.20725981  0.09924474  0.58416488     0.11200
H698        H  0.18500981  0.06317197  0.67929112     0.11200
H699        H  0.17783988  0.11639886  0.69676195     0.11200
H700        H  0.19963715  0.15213874  0.60208838     0.11200
C701        C  0.45979612  0.38772515  0.61299266    -0.14900
C702        C  0.44206905  0.41449590  0.60809545     0.07300
C703        C  0.43190960  0.43172916  0.63418644    -0.14900
C704        C  0.44210851  0.42390106  0.66462529    -0.14900
C705        C  0.46283853  0.39896776  0.66904134     0.11100
C706        C  0.47059443  0.38034104  0.64309195    -0.14900
H707        H  0.46873331  0.37486193  0.59290322     0.11200
H708        H  0.41891592  0.45300750  0.63059660     0.11200
H709        H  0.43464081  0.43795311  0.68437597     0.11200
H710        H  0.48661397  0.36111446  0.64543952     0.11200
C711        C  0.45046232  0.44756379  0.82347604    -0.14900
C712        C  0.47621047  0.44741362  0.84422898     0.07300
C713        C  0.50565916  0.43608616  0.83376260    -0.14900
C714        C  0.50836026  0.42157343  0.80467507    -0.14900
C715        C  0.48134653  0.41742456  0.78562091     0.07300
C716        C  0.45313129  0.43285522  0.79418254    -0.14900
H717        H  0.42777085  0.45706543  0.83073760     0.11200
H718        H  0.02641102  0.43731249  0.84877425     0.11200
H719        H  0.03153669  0.41301217  0.79820238     0.11200
H720        H  0.43234937  0.43145716  0.77926827     0.11200
C721        C  0.10834683  0.47173939  0.87290068    -0.14900
C722        C  0.10543851  0.46188965  0.90488627     0.07300
C723        C  0.13361153  0.45840449  0.92222420    -0.14900
C724        C  0.16389480  0.46599575  0.90831928    -0.14900
C725        C  0.16660573  0.47795936  0.87695738     0.07300
C726        C  0.13851372  0.47957556  0.85908316    -0.14900
H727        H  0.08718434  0.97527479  0.85911041     0.11200
H728        H  0.13200036  0.45218559  0.94731780     0.11200
H729        H  0.18491415  0.46463115  0.92283381     0.11200
H730        H  0.13987444  0.98751653  0.83443052     0.11200
C731        C  0.31837974  0.46019697  0.92777539    -0.14900
C732        C  0.33648166  0.48588260  0.93838611     0.07300
C733        C  0.32447203  0.51594165  0.93428032    -0.14900
C734        C  0.29616646  0.52058810  0.91787853    -0.14900
C735        C  0.27952101  0.49533733  0.90419989     0.07300
C736        C  0.29025281  0.46487338  0.91067559    -0.14900
H737        H  0.32725109  0.43679973  0.93049866     0.11200
H738        H  0.33793166  0.53612610  0.94250328     0.11200
H739        H  0.28833009  0.54426652  0.91455153     0.11200
H740        H  0.27848812  0.44466320  0.90062706     0.11200
C741        C  0.14812079  0.51091858  0.51254695    -0.14900
C742        C  0.12365789  0.99286866  0.52852042     0.07300
C743        C  0.13209881  0.97190019  0.55294593    -0.14900
C744        C  0.16312201  0.97264210  0.56449850    -0.14900
C745        C  0.18563172  0.99486122  0.55225667     0.07300
C746        C  0.17891977  0.01171216  0.52435033    -0.14900
H747        H  0.14264547  0.52639750  0.99283809     0.11200
H748        H  0.11421387  0.95668614  0.56483838     0.11200
H749        H  0.16790419  0.95947548  0.58607766     0.11200
H750        H  0.19616135  0.52947053  0.51498208     0.11200
C751        C  0.33757375  0.04931645  0.55598761    -0.14900
C752        C  0.35588059  0.02319410  0.56276278     0.07300
C753        C  0.34247055  0.49870828  0.58190767    -0.14900
C754        C  0.31081014  0.49928219  0.59277935    -0.14900
C755        C  0.29178994  0.02445381  0.58452149     0.07300
C756        C  0.30567628  0.04998923  0.56695964    -0.14900
H757        H  0.34729878  0.06827036  0.54089988     0.11200
H758        H  0.35633190  0.47844091  0.58769159     0.11200
H759        H  0.30119225  0.48009515  0.60749580     0.11200
H760        H  0.29150498  0.06992838  0.56083020     0.11200
C761        C  0.37981037  0.11701787  0.94675596    -0.14900
C762        C  0.41273047  0.11384034  0.94351751     0.07300
C763        C  0.43320041  0.14038279  0.94040783    -0.14900
C764        C  0.42084192  0.17021514  0.94289612    -0.14900
C765        C  0.38795090  0.17342125  0.94932050     0.07300
C766        C  0.36753616  0.14651444  0.94975907    -0.14900
H767        H  0.36394266  0.09663002  0.94990723     0.11200
H768        H  0.45891649  0.13789272  0.93843462     0.11200
H769        H  0.43739463  0.19007075  0.94192985     0.11200
H770        H  0.34205720  0.14824396  0.95453908     0.11200
C771        C  0.39021090  0.34677616  0.98503793    -0.14900
C772        C  0.41927908  0.35457715  0.96873459     0.07300
C773        C  0.43355716  0.33144960  0.95047008    -0.14900
C774        C  0.41945630  0.30128517  0.94909792    -0.14900
C775        C  0.39078411  0.29318249  0.96622611     0.07300
C776        C  0.37630198  0.31668209  0.98388277    -0.14900
H777        H  0.37822939  0.36386250  0.99928479     0.11200
H778        H  0.45572064  0.33657887  0.93729148     0.11200
H779        H  0.43116668  0.28450936  0.93434379     0.11200
H780        H  0.35447498  0.31203164  0.99756875     0.11200
C781        C  0.02356642  0.15643069  0.00289447    -0.14900
C782        C  0.03953065  0.13065408  0.99062755     0.07300
C783        C  0.06968590  0.13620462  0.97558958    -0.14900
C784        C  0.08364186  0.16619167  0.97327924    -0.14900
C785        C  0.06805102  0.19216582  0.98550658     0.07300
C786        C  0.03761265  0.18682545  0.00038845    -0.14900
H787        H  0.50020615  0.15315179  0.01435336     0.11200
H788        H  0.08288603  0.11725844  0.96552558     0.11200
H789        H  0.10703169  0.16916361  0.96177080     0.11200
H790        H  0.02449216  0.20572051  0.01039082     0.11200
C791        C  0.04180332  0.34535325  0.03352651    -0.14900
C792        C  0.05640031  0.37232617  0.51939090     0.07300
C793        C  0.08281002  0.36909589  0.49878587    -0.14900
C794        C  0.09255084  0.33969716  0.98987839    -0.14900
C795        C  0.07711081  0.31231004  0.00236229     0.07300
C796        C  0.05239970  0.31556424  0.02546119    -0.14900
H797        H  0.02073247  0.34719964  0.04876923     0.11200
H798        H  0.09369747  0.38950396  0.48668620     0.11200
H799        H  0.11089939  0.33905478  0.97149950     0.11200
H800        H  0.04030184  0.29525386  0.03639048     0.11200
C801        C  0.97429284  0.09835809  0.65409639    -0.14900
C802        C  0.48524951  0.08435694  0.68201573     0.07300
C803        C  0.50059765  0.05533829  0.67929759    -0.14900
C804        C  0.50359739  0.04034008  0.64988501    -0.14900
C805        C  0.49172894  0.05404800  0.62213005     0.07300
C806        C  0.97753766  0.08360356  0.62481945    -0.14900
H807        H  0.96241792  0.12044961  0.65478778     0.11200
H808        H  0.51058175  0.04400999  0.69986706     0.11200
H809        H  0.51481396  0.01789452  0.64899845     0.11200
H810        H  0.96815958  0.09542445  0.60418008     0.11200
C811        C  0.50428353  0.05847236  0.80521993    -0.14900
C812        C  0.48950989  0.08758682  0.80326801     0.07300
C813        C  0.98876886  0.10624675  0.83046037    -0.14900
C814        C  0.00120981  0.09569516  0.85892073    -0.14900
C815        C  0.51397330  0.06597616  0.86109874     0.07300
C816        C  0.51603528  0.04766439  0.83401722    -0.14900
H817        H  0.50724970  0.04392102  0.78482490     0.11200
H818        H  0.97910753  0.12943630  0.82943286     0.11200
H819        H  0.99822669  0.10955933  0.87998479     0.11200
H820        H  0.52458163  0.02403653  0.83574865     0.11200
C821        C  0.40565908  0.16349953  0.71170094    -0.14900
C822        C  0.42345504  0.16240900  0.73946747     0.07300
C823        C  0.41383653  0.18087875  0.76523678    -0.14900
C824        C  0.38613776  0.19875781  0.76383456    -0.14900
C825        C  0.36706927  0.19810983  0.73681940     0.07300
C826        C  0.37771201  0.18086811  0.71049059    -0.14900
H827        H  0.41239091  0.14960716  0.69154593     0.11200
H828        H  0.42736748  0.18081538  0.78689571     0.11200
H829        H  0.37879353  0.21172970  0.78442597     0.11200
H830        H  0.36382205  0.18007214  0.68906839     0.11200
C831        C  0.06111344  0.15165994  0.71429284    -0.14900
C832        C  0.03562804  0.16489909  0.73075704     0.07300
C833        C  0.04189028  0.18973834  0.75135016    -0.14900
C834        C  0.07338253  0.19994442  0.75673947    -0.14900
C835        C  0.09891273  0.18529923  0.74169658     0.07300
C836        C  0.09247951  0.16171946  0.71978227    -0.14900
H837        H  0.05692256  0.13170208  0.69934934     0.11200
H838        H  0.02253063  0.19945746  0.76515388     0.11200
H839        H  0.07779918  0.21943114  0.77222517     0.11200
H840        H  0.11191615  0.15126375  0.70669503     0.11200
C841        C  0.48320904  0.60340670  0.27158330     0.84900
C842        C  0.45281282  0.62254312  0.27019090    -0.55300
C843        C  0.45030851  0.64023865  0.24289745     0.07900
C844        C  0.97883603  0.63613085  0.21879186     0.18800
C845        C  0.48230207  0.58340748  0.24168321    -0.56000
C846        C  0.48119183  0.60010769  0.21360250     0.08000
C847        C  0.01048515  0.62687033  0.26546771    -0.55500
C848        C  0.00844562  0.64422170  0.23860710     0.08500
H849        H  0.43529226  0.62285394  0.28963689     0.13100
H850        H  0.97769810  0.65070872  0.19677051    -0.01200
H851        H  0.48247907  0.55815645  0.24249785     0.13400
H852        H  0.03078442  0.62925693  0.28117313     0.13200
O853        O  0.03178591  0.54658042  0.41096454    -0.81700
O854        O  0.37644272  0.96687227  0.47367621    -0.83200
O855        O  0.45497596  0.97960000  0.38473236    -0.80200
O856        O  0.42746641  0.56253118  0.43202382    -0.78600
O857        O  0.43518712  0.58228787  0.48154388    -0.80400
O858        O  0.48845591  0.94026888  0.39780637    -0.81400
O859        O  0.39143671  0.99869925  0.43132610    -0.82700
O860        O  0.48012295  0.53899005  0.39475108    -0.83000
Eu861      Eu  0.44875375  0.50979383  0.43313641     2.39200
O862        O  0.42795149  0.51188852  0.48478580    -0.90500
O863        O  0.50097815  0.99098458  0.43408569    -0.94100
C864        C  0.50897113  0.54934196  0.39093908     1.00600
C865        C  0.37025582  0.98319573  0.44841320     1.00400
C866        C  0.47257099  0.95637898  0.37770596     1.00400
C867        C  0.42603000  0.58426863  0.45263988     0.98200
H868        H  0.43246868  0.94557443  0.43949600     0.28000
O869        O  0.44604960  0.95821808  0.45267160    -1.02900
H870        H  0.48499478  0.56232219  0.45321624     0.28000
O871        O  0.48298682  0.54174215  0.46295809    -1.05400
O872        O  0.42655016  0.93379490  0.05748190    -0.82600
O873        O  0.08314776  0.51249306  0.49533130    -0.82200
O874        O  0.46174803  0.89325241  0.45759214    -0.80600
O875        O  0.40711421  0.54052552  0.04012006    -0.83900
O876        O  0.49815313  0.59196659  0.00686803    -0.81800
O877        O  0.05349746  0.94460043  0.42696290    -0.80400
O878        O  0.03486697  0.92103307  0.03683927    -0.82000
O879        O  0.00576808  0.51154976  0.08586535    -0.83900
O880        O  0.02826791  0.90376678  0.48601651    -0.80600
O881        O  0.47599192  0.55236368  0.06900754    -0.83300
O882        O  0.41890687  0.90608441  0.48888340    -0.79000
O883        O  0.07250193  0.99492798  0.43242108    -0.79100
O884        O  0.04159185  0.57708406  0.47763551    -0.78700
O885        O  0.38920736  0.98977575  0.03648579    -0.82200
O886        O  0.47719115  0.94300448  0.07591827    -0.81600
O887        O  0.06853530  0.98338510  0.03989533    -0.80000
Eu888      Eu  0.42582874  0.96045675  0.00513643     2.39800
Eu889      Eu  0.03453681  0.52220729  0.46470807     2.39600
Eu890      Eu  0.49889823  0.94001927  0.45443030     2.38400
Eu891      Eu  0.46183564  0.54450809  0.01454370     2.39900
Eu892      Eu  0.01056956  0.97415212  0.03935364     2.39800
O893        O  0.01445102  0.52542352  0.01748807    -0.94400
O894        O  0.47815836  0.94216169  0.50696121    -0.93300
C895        C  0.44853815  0.93135540  0.07834868     1.00800
C896        C  0.08976125  0.49657187  0.02067189     0.99500
C897        C  0.43441025  0.88665103  0.47180417     0.98900
C898        C  0.38615626  0.51788489  0.04540272     1.00900
C899        C  0.02543946  0.59781131  0.49220856     0.99800
C900        C  0.07499483  0.96701732  0.42234324     0.98700
C901        C  0.03851996  0.90088415  0.01443275     0.98700
C902        C  0.49160838  0.53800526  0.09048044     1.01300
H903        H  0.05125788  0.96248041  0.48663810     0.28700
O904        O  0.03051891  0.97174785  0.48669741    -1.06500
H905        H  0.44943992  0.99433722  0.05745789     0.30800
O906        O  0.45865228  0.99343318  0.03628867    -1.09100
C907        C  0.21053549  0.54629846  0.11965902     0.84900
C908        C  0.19352335  0.53639719  0.08981804    -0.55300
C909        C  0.20551028  0.51086029  0.07590694     0.07900
C910        C  0.23374971  0.99695932  0.09307692     0.18800
C911        C  0.20863687  0.51668299  0.14162942    -0.56000
C912        C  0.22096060  0.99047727  0.12754978     0.08000
C913        C  0.24594186  0.55003669  0.10993008    -0.55500
C914        C  0.25820448  0.52458674  0.09605459     0.08500
H915        H  0.17210735  0.54756289  0.08147124     0.13100
H916        H  0.24336513  0.97674083  0.08043506    -0.01200
H917        H  0.19880130  0.51627180  0.16563414     0.13400
H918        H  0.26016343  0.57127599  0.11364972     0.13200
O919        O  0.14916780  0.70211749  0.26483124    -0.81700
O920        O  0.22548683  0.78779599  0.12116627    -0.83200
O921        O  0.13204077  0.77322843  0.19207254    -0.80200
O922        O  0.17797562  0.69015589  0.16413849    -0.78600
O923        O  0.22645577  0.66892604  0.17445212    -0.80400
O924        O  0.14282448  0.80946332  0.22995130    -0.81400
O925        O  0.18160705  0.75584214  0.13169004    -0.82700
O926        O  0.13755841  0.71147084  0.21251885    -0.83000
Eu927      Eu  0.17967169  0.74175655  0.18825549     2.39200
O928        O  0.23241030  0.73948166  0.17026214    -0.90500
O929        O  0.17718832  0.75816541  0.24124851    -0.94100
C930        C  0.13087678  0.70027087  0.24024647     1.00600
C931        C  0.20026276  0.77217977  0.11263774     1.00400
C932        C  0.12399968  0.79493886  0.21105560     1.00400
C933        C  0.19798037  0.66787510  0.16349577     0.98200
H934        H  0.18785569  0.80683278  0.17648893     0.28000
O935        O  0.19995860  0.79327323  0.18994429    -1.02900
H936        H  0.19612089  0.68702469  0.22288893     0.28000
O937        O  0.20642584  0.70753693  0.22255639    -1.05400
O938        O  0.30695883  0.81591111  0.17734735    -0.82600
O939        O  0.23514284  0.73037847  0.32531635    -0.82200
O940        O  0.20618322  0.85717043  0.20971206    -0.80600
O941        O  0.28653217  0.71104569  0.14986747    -0.83900
O942        O  0.25174152  0.65637092  0.23913521    -0.81800
O943        O  0.17063109  0.80347614  0.29739986    -0.80400
O944        O  0.27988437  0.82610950  0.28229333    -0.82000
O945        O  0.32889284  0.73742170  0.25293189    -0.83900
O946        O  0.22936678  0.84445249  0.27555143    -0.80600
O947        O  0.31486975  0.69874732  0.21871110    -0.83300
O948        O  0.24008189  0.84569136  0.16847877    -0.79000
O949        O  0.17152494  0.75182997  0.31290661    -0.79100
O950        O  0.21869522  0.66941161  0.28052476    -0.78700
O951        O  0.28615942  0.76294284  0.13559411    -0.82200
O952        O  0.32226839  0.80379705  0.22801899    -0.81600
O953        O  0.28053716  0.76013466  0.31355061    -0.80000
Eu954      Eu  0.25367208  0.79083253  0.17242601     2.39800
Eu955      Eu  0.20455212  0.72441621  0.27509633     2.39600
Eu956      Eu  0.19895074  0.80885369  0.24368201     2.38400
Eu957      Eu  0.25957457  0.70489446  0.20398437     2.39900
Eu958      Eu  0.28193259  0.77335644  0.25721055     2.39800
O959        O  0.25858853  0.72240955  0.25700933    -0.94400
O960        O  0.25254543  0.80735894  0.22520168    -0.93300
C961        C  0.32693805  0.81618502  0.20024288     1.00800
C962        C  0.26116554  0.74537619  0.33323297     0.99500
C963        C  0.22273871  0.86476293  0.18410510     0.98900
C964        C  0.29354714  0.73458800  0.13058578     1.00900
C965        C  0.23570551  0.64957767  0.26542711     0.99800
C966        C  0.16386189  0.78030484  0.31720936     0.98700
C967        C  0.25792360  0.84666016  0.28608699     0.98700
C968        C  0.33516895  0.71279766  0.23645485     1.01300
H969        H  0.22791834  0.78309192  0.29640676     0.28700
O970        O  0.22836534  0.77488768  0.27526486    -1.06500
H971        H  0.30377076  0.75527340  0.19654439     0.30800
O972        O  0.28208126  0.75594968  0.20472996    -1.09100
C973        C  0.08567981  0.72392931  0.48236539     0.84900
C974        C  0.11735015  0.72413014  0.00036106    -0.55300
C975        C  0.13529088  0.75132813  0.99738244     0.07900
C976        C  0.12035946  0.77553017  0.47512679     0.18800
C977        C  0.06878031  0.75344380  0.49428015    -0.56000
C978        C  0.08711281  0.78070553  0.49080611     0.08000
C979        C  0.09520495  0.73222525  0.44769814    -0.55500
C980        C  0.11331024  0.75911609  0.44351854     0.08500
H981        H  0.12297069  0.70552935  0.01710565     0.13100
H982        H  0.13623030  0.79649738  0.47171883    -0.01200
H983        H  0.04479648  0.75302454  0.50451310     0.13400
H984        H  0.08834841  0.71762106  0.42802542     0.13200
C985        C  0.48056124  0.89508484  0.25815996     0.84900
C986        C  0.50941867  0.87399153  0.25434365    -0.55300
C987        C  0.50700439  0.85382745  0.22997773     0.07900
C988        C  0.47633592  0.85638098  0.21135963     0.18800
C989        C  0.47712315  0.91120824  0.22537227    -0.56000
C990        C  0.47436914  0.89070124  0.20087473     0.08000
C991        C  0.45167523  0.87188030  0.26092509    -0.55500
C992        C  0.44879462  0.85268634  0.23555727     0.08500
H993        H  0.03006081  0.87392950  0.26938669     0.13100
H994        H  0.47458099  0.83907411  0.19220798    -0.01200
H995        H  0.47484744  0.93627894  0.22232971     0.13400
H996        H  0.43249302  0.87389862  0.27855504     0.13200
C997        C  0.37309391  0.70384243  0.45850911     0.84900
C998        C  0.34475950  0.71013205  0.43759370    -0.55300
C999        C  0.32719996  0.73472210  0.44627754     0.07900
C1000       C  0.34051680  0.75214300  0.47517735     0.18800
C1001       C  0.39307256  0.73479982  0.45733860    -0.56000
C1002       C  0.37613536  0.76062901  0.46581214     0.08000
C1003       C  0.35943496  0.70149784  0.49249316    -0.55500
C1004       C  0.34239882  0.72642531  0.50156366     0.08500
H1005       H  0.33920782  0.69626481  0.41694768     0.13100
H1006       H  0.32552719  0.77192110  0.48194867    -0.01200
H1007       H  0.41826122  0.73609796  0.45090997     0.13400
H1008       H  0.36360660  0.68175790  0.00838333     0.13200
C1009       C  0.23409583  0.52531708  0.33094302     0.84900
C1010       C  0.25518463  0.52724878  0.36044667    -0.55300
C1011       C  0.25433114  0.00118940  0.37985914     0.07900
C1012       C  0.23088906  0.97551054  0.36836717     0.18800
C1013       C  0.24509120  0.99485077  0.31467860    -0.56000
C1014       C  0.24344860  0.96866948  0.33449192     0.08000
C1015       C  0.20021531  0.51672250  0.34402539    -0.55500
C1016       C  0.19817365  0.99059571  0.36335070     0.08500
H1017       H  0.27179783  0.54685312  0.36358570     0.13100
H1018       H  0.22902029  0.95511109  0.38489947    -0.01200
H1019       H  0.25289838  0.99389905  0.29003326     0.13400
H1020       H  0.17950785  0.53028984  0.33817055     0.13200
C1021       C  0.16722204  0.79061657  0.37493804    -0.14900
C1022       C  0.14796291  0.78539507  0.34842723     0.07300
C1023       C  0.11618975  0.77455284  0.35376167    -0.14900
C1024       C  0.10447778  0.76760093  0.38473536    -0.14900
C1025       C  0.12436050  0.77099255  0.41117551     0.07300
C1026       C  0.15552406  0.78365361  0.40597667    -0.14900
H1027       H  0.19221471  0.79764931  0.37145373     0.11200
H1028       H  0.10114516  0.76930330  0.33379599     0.11200
H1029       H  0.08019275  0.75828759  0.38788152     0.11200
H1030       H  0.17158660  0.78618586  0.42566656     0.11200
C1031       C  0.19517744  0.74264083  0.06300255    -0.14900
C1032       C  0.19208298  0.77101613  0.07874967     0.07300
C1033       C  0.17475310  0.79485100  0.06446460    -0.14900
C1034       C  0.15865091  0.78943286  0.03608093    -0.14900
C1035       C  0.15929406  0.75993514  0.02179904     0.07300
C1036       C  0.17910299  0.73719262  0.03472566    -0.14900
H1037       H  0.20823154  0.72383462  0.07382007     0.11200
H1038       H  0.17158061  0.81669280  0.07650007     0.11200
H1039       H  0.14353363  0.80747878  0.02698508     0.11200
H1040       H  0.18044951  0.71442733  0.02412948     0.11200
C1041       C  0.28972186  0.77187513  0.37717062    -0.14900
C1042       C  0.27011781  0.74672395  0.36705105     0.07300
C1043       C  0.26248742  0.72201955  0.38850601    -0.14900
C1044       C  0.27769596  0.72051310  0.41779313    -0.14900
C1045       C  0.30054183  0.74372214  0.42594879     0.07300
C1046       C  0.30474005  0.77042103  0.40647313    -0.14900
H1047       H  0.29533844  0.79171821  0.36140818     0.11200
H1048       H  0.24720451  0.70258059  0.38153646     0.11200
H1049       H  0.27444187  0.69950416  0.43246892     0.11200
H1050       H  0.32249042  0.78833436  0.41207795     0.11200
C1051       C  0.30494886  0.70270127  0.08218316    -0.14900
C1052       C  0.30955302  0.73019228  0.09922920     0.07300
C1053       C  0.32508388  0.75624682  0.08373120    -0.14900
C1054       C  0.33461855  0.75532792  0.05178805    -0.14900
C1055       C  0.32947612  0.72817739  0.03459392     0.07300
C1056       C  0.31492833  0.70168811  0.05015359    -0.14900
H1057       H  0.29254138  0.68252816  0.09315097     0.11200
H1058       H  0.32914987  0.77785450  0.09616809     0.11200
H1059       H  0.34658503  0.77566696  0.04071907     0.11200
H1060       H  0.31087282  0.68031175  0.03733997     0.11200
C1061       C  0.27433427  0.93160656  0.29957036    -0.14900
C1062       C  0.25239022  0.93652790  0.32480750     0.07300
C1063       C  0.23806938  0.91016290  0.34057516    -0.14900
C1064       C  0.24404554  0.88006232  0.33044962    -0.14900
C1065       C  0.26400174  0.87530989  0.30391238     0.07300
C1066       C  0.27988269  0.90123780  0.28904841    -0.14900
H1067       H  0.28629973  0.95118986  0.28714911     0.11200
H1068       H  0.22036874  0.91245711  0.35941164     0.11200
H1069       H  0.23057800  0.86052895  0.34150855     0.11200
H1070       H  0.29453360  0.89822864  0.26783346     0.11200
C1071       C  0.24699514  0.59070264  0.26447046    -0.14900
C1072       C  0.23625870  0.61722648  0.28046212     0.07300
C1073       C  0.22481758  0.61274464  0.31204014    -0.14900
C1074       C  0.22433038  0.58334643  0.32720886    -0.14900
C1075       C  0.23503348  0.55666543  0.31169758     0.07300
C1076       C  0.24631184  0.56080126  0.27981438    -0.14900
H1077       H  0.25569829  0.59298978  0.24007778     0.11200
H1078       H  0.21630936  0.63221770  0.32551946     0.11200
H1079       H  0.21553022  0.58143787  0.35160447     0.11200
H1080       H  0.25484565  0.54127972  0.26657572     0.11200
C1081       C  0.38363564  0.80898627  0.19371129    -0.14900
C1082       C  0.35862100  0.83004113  0.19568891     0.07300
C1083       C  0.36406994  0.85950226  0.20852985    -0.14900
C1084       C  0.39326431  0.86659346  0.22231725    -0.14900
C1085       C  0.41720738  0.84422330  0.22330196     0.07300
C1086       C  0.41280227  0.81599381  0.20762910    -0.14900
H1087       H  0.37936813  0.78574922  0.18465175     0.11200
H1088       H  0.34471162  0.87565416  0.21086878     0.11200
H1089       H  0.39693195  0.88932361  0.23269406     0.11200
H1090       H  0.43151712  0.79901552  0.20713172     0.11200
C1091       C  0.07546639  0.80164141  0.24326439    -0.14900
C1092       C  0.09052357  0.80303937  0.21321444     0.07300
C1093       C  0.07484842  0.81579947  0.18712142    -0.14900
C1094       C  0.04558930  0.83024065  0.19193856    -0.14900
C1095       C  0.03228077  0.83176162  0.22279750     0.07300
C1096       C  0.04636391  0.81574109  0.24799062    -0.14900
H1097       H  0.08720656  0.79126870  0.26346834     0.11200
H1098       H  0.08634568  0.81678582  0.16377728     0.11200
H1099       H  0.03488915  0.84241398  0.17222886     0.11200
H1100       H  0.03595287  0.81605297  0.27178779     0.11200
C1101       C  0.20097771  0.94994594  0.16939957    -0.14900
C1102       C  0.22169492  0.95876829  0.14355295     0.07300
C1103       C  0.24302276  0.93650833  0.13232742    -0.14900
C1104       C  0.24325875  0.90647456  0.14570142    -0.14900
C1105       C  0.22231909  0.89741641  0.17108962     0.07300
C1106       C  0.20138088  0.91966282  0.18307079    -0.14900
H1107       H  0.18389293  0.96606441  0.17873555     0.11200
H1108       H  0.26001964  0.94191133  0.11322893     0.11200
H1109       H  0.26012369  0.89029838  0.13594357     0.11200
H1110       H  0.18495089  0.91354213  0.20263357     0.11200
C1111       C  0.19999862  0.60259852  0.10890529    -0.14900
C1112       C  0.19804473  0.57708357  0.13079550     0.07300
C1113       C  0.18750330  0.58218015  0.16210760    -0.14900
C1114       C  0.18285200  0.61266585  0.17200579    -0.14900
C1115       C  0.18829035  0.63803939  0.15068312     0.07300
C1116       C  0.19524051  0.63283521  0.11879501    -0.14900
H1117       H  0.20782739  0.59934267  0.08451123     0.11200
H1118       H  0.18519479  0.56340354  0.17960267     0.11200
H1119       H  0.17806783  0.61669288  0.19698412     0.11200
H1120       H  0.20028151  0.65227694  0.10233785     0.11200
C1121       C  0.46001450  0.88781565  0.11297371    -0.14900
C1122       C  0.44211489  0.91446781  0.10803514     0.07300
C1123       C  0.43163528  0.93155433  0.13410521    -0.14900
C1124       C  0.44173302  0.92375145  0.16458502    -0.14900
C1125       C  0.46266698  0.89899634  0.16904587     0.11100
C1126       C  0.47068511  0.88044863  0.14312109    -0.14900
H1127       H  0.46917057  0.87505941  0.09290606     0.11200
H1128       H  0.41847860  0.95272809  0.13048575     0.11200
H1129       H  0.43405357  0.93769934  0.18433762     0.11200
H1130       H  0.48681953  0.86132251  0.14554330     0.11200
C1131       C  0.45034051  0.94783143  0.32353173    -0.14900
C1132       C  0.47602938  0.94740802  0.34435892     0.07300
C1133       C  0.50543975  0.93602346  0.33388483    -0.14900
C1134       C  0.50814679  0.92169139  0.30471478    -0.14900
C1135       C  0.48115789  0.91771601  0.28559683     0.07300
C1136       C  0.45300504  0.93325825  0.29415476    -0.14900
H1137       H  0.42769601  0.95743756  0.33078553     0.11200
H1138       H  0.02616605  0.93710120  0.34892886     0.11200
H1139       H  0.03130676  0.91311877  0.29823897     0.11200
H1140       H  0.43225646  0.93202281  0.27918399     0.11200
C1141       C  0.10845621  0.97144605  0.37278152    -0.14900
C1142       C  0.10552657  0.96196122  0.40487633     0.07300
C1143       C  0.13369547  0.95864038  0.42225778    -0.14900
C1144       C  0.16398568  0.96611372  0.40831254    -0.14900
C1145       C  0.16672044  0.97779149  0.37684971     0.07300
C1146       C  0.13864420  0.97916271  0.35891467    -0.14900
H1147       H  0.08705278  0.47577429  0.35930432     0.11200
H1148       H  0.13207432  0.95265125  0.44740347     0.11200
H1149       H  0.18499011  0.96491589  0.42286630     0.11200
H1150       H  0.13970057  0.48820325  0.33468778     0.11200
C1151       C  0.31835913  0.96049217  0.42813038    -0.14900
C1152       C  0.33675287  0.98621640  0.43818941     0.07300
C1153       C  0.32502258  0.01632080  0.43357815    -0.14900
C1154       C  0.29665922  0.02092861  0.41728332    -0.14900
C1155       C  0.27969422  0.99558295  0.40412393     0.07300
C1156       C  0.29019154  0.96512039  0.41107652    -0.14900
H1157       H  0.32701015  0.93705368  0.43126149     0.11200
H1158       H  0.33870443  0.03654357  0.44138403     0.11200
H1159       H  0.28902092  0.04463333  0.41366020     0.11200
H1160       H  0.27819224  0.94481854  0.40147158     0.11200
C1161       C  0.14796259  0.01082488  0.01253729    -0.14900
C1162       C  0.12383818  0.49280826  0.02837026     0.07300
C1163       C  0.13232184  0.47186910  0.05280875    -0.14900
C1164       C  0.16329295  0.47278001  0.06451956    -0.14900
C1165       C  0.18574076  0.49513309  0.05243433     0.07300
C1166       C  0.17901933  0.51205190  0.02456010    -0.14900
H1167       H  0.14249692  0.02625149  0.49280561     0.11200
H1168       H  0.11447900  0.45653441  0.06459784     0.11200
H1169       H  0.16806097  0.45958138  0.08608206     0.11200
H1170       H  0.19612382  0.02905252  0.01467512     0.11200
C1171       C  0.33730069  0.54911167  0.05550768    -0.14900
C1172       C  0.35580148  0.52318922  0.06254202     0.07300
C1173       C  0.34225792  0.99848032  0.08164652    -0.14900
C1174       C  0.31051638  0.99905299  0.09226686    -0.14900
C1175       C  0.29186987  0.52442531  0.08474340     0.07300
C1176       C  0.30547857  0.54977503  0.06670462    -0.14900
H1177       H  0.34681598  0.56789573  0.04007721     0.11200
H1178       H  0.35594261  0.97804027  0.08721847     0.11200
H1179       H  0.30065726  0.97966622  0.10656930     0.11200
H1180       H  0.29114076  0.56954383  0.06039365     0.11200
C1181       C  0.37992263  0.61700432  0.44761556    -0.14900
C1182       C  0.41276460  0.61387100  0.44351238     0.07300
C1183       C  0.43309832  0.64044922  0.43960453    -0.14900
C1184       C  0.42071057  0.67028686  0.44216142    -0.14900
C1185       C  0.38797128  0.67344020  0.44947277     0.07300
C1186       C  0.36764331  0.64648148  0.45063420    -0.14900
H1187       H  0.36417581  0.59660589  0.45136509     0.11200
H1188       H  0.45876773  0.63801188  0.43690474     0.11200
H1189       H  0.43715193  0.69021119  0.44043759     0.11200
H1190       H  0.34226390  0.64818259  0.45598295     0.11200
C1191       C  0.38959174  0.84725901  0.48393203    -0.14900
C1192       C  0.41936679  0.85471081  0.46883593     0.07300
C1193       C  0.43438865  0.83122969  0.45169395    -0.14900
C1194       C  0.42028901  0.80107793  0.45021603    -0.14900
C1195       C  0.39084745  0.79329629  0.46615842     0.07300
C1196       C  0.37569568  0.81715409  0.48274367    -0.14900
H1197       H  0.37701888  0.86464079  0.49726148     0.11200
H1198       H  0.45715795  0.83606312  0.43949760     0.11200
H1199       H  0.43267664  0.78409012  0.43631484     0.11200
H1200       H  0.35332439  0.81282417  0.49559789     0.11200
C1201       C  0.02353830  0.65616849  0.50274421    -0.14900
C1202       C  0.03967370  0.63034264  0.49082109     0.07300
C1203       C  0.06997420  0.63583183  0.47606995    -0.14900
C1204       C  0.08387964  0.66583065  0.47366691    -0.14900
C1205       C  0.06811263  0.69185386  0.48556596     0.07300
C1206       C  0.03754381  0.68656793  0.50016347    -0.14900
H1207       H  0.50005797  0.65293055  0.51395544     0.11200
H1208       H  0.08331058  0.61683490  0.46628792     0.11200
H1209       H  0.10737604  0.66877138  0.46237400     0.11200
H1210       H  0.02428296  0.70551703  0.50986815     0.11200
C1211       C  0.04197975  0.84536559  0.53327939    -0.14900
C1212       C  0.05669766  0.87230569  0.01915290     0.07300
C1213       C  0.08305918  0.86891536  0.99850285    -0.14900
C1214       C  0.09266161  0.83943754  0.48961755    -0.14900
C1215       C  0.07716142  0.81210959  0.50217394     0.07300
C1216       C  0.05243628  0.81550437  0.52522986    -0.14900
H1217       H  0.02092773  0.84730396  0.54852891     0.11200
H1218       H  0.09402808  0.88926322  0.98636935     0.11200
H1219       H  0.11099979  0.83867830  0.47123484     0.11200
H1220       H  0.04025109  0.79524481  0.53616959     0.11200
C1221       C  0.97441533  0.59846864  0.15398531    -0.14900
C1222       C  0.48540882  0.58452315  0.18191722     0.07300
C1223       C  0.50067811  0.55545478  0.17923730    -0.14900
C1224       C  0.50355157  0.54035596  0.14986376    -0.14900
C1225       C  0.49163560  0.55400504  0.12209857     0.07300
C1226       C  0.97750790  0.58359840  0.12474727    -0.14900
H1227       H  0.96261235  0.62060012  0.15464891     0.11200
H1228       H  0.51069278  0.54415940  0.19981025     0.11200
H1229       H  0.51471942  0.51788429  0.14901524     0.11200
H1230       H  0.96809060  0.59537463  0.10410176     0.11200
C1231       C  0.50461609  0.55858557  0.30496986    -0.14900
C1232       C  0.48971578  0.58765411  0.30311866     0.07300
C1233       C  0.98886516  0.60617886  0.33039374    -0.14900
C1234       C  0.00119779  0.59549646  0.35885689    -0.14900
C1235       C  0.51398599  0.56578428  0.36095463     0.07300
C1236       C  0.51624015  0.54762981  0.33377662    -0.14900
H1237       H  0.50775625  0.54417667  0.28449065     0.11200
H1238       H  0.97916540  0.62935318  0.32945041     0.11200
H1239       H  0.99810718  0.60925523  0.37997884     0.11200
H1240       H  0.52486110  0.52402499  0.33541433     0.11200
C1241       C  0.40609351  0.66418047  0.21165983    -0.14900
C1242       C  0.42385646  0.66289266  0.23944404     0.07300
C1243       C  0.41429771  0.68133274  0.26526543    -0.14900
C1244       C  0.38663265  0.69928074  0.26392536    -0.14900
C1245       C  0.36753575  0.69872627  0.23692137     0.07300
C1246       C  0.37817763  0.68160748  0.21051465    -0.14900
H1247       H  0.41279793  0.65036085  0.19144397     0.11200
H1248       H  0.42782487  0.68116479  0.28692656     0.11200
H1249       H  0.37931142  0.71219243  0.28456660     0.11200
H1250       H  0.36428291  0.68092174  0.18909146     0.11200
C1251       C  0.06131564  0.65178496  0.21411364    -0.14900
C1252       C  0.03591246  0.66502227  0.23070219     0.07300
C1253       C  0.04230150  0.68966841  0.25149006    -0.14900
C1254       C  0.07383618  0.69958358  0.25704831    -0.14900
C1255       C  0.09928231  0.68491449  0.24190662     0.07300
C1256       C  0.09273210  0.66158417  0.21974267    -0.14900
H1257       H  0.05701019  0.63199422  0.19897532     0.11200
H1258       H  0.02299345  0.69940383  0.26535229     0.11200
H1259       H  0.07835337  0.71891741  0.27270133     0.11200
H1260       H  0.11211124  0.65115795  0.20654271     0.11200
C1261       C  0.48322795  0.60340482  0.77158252     0.84900
C1262       C  0.45282811  0.62253619  0.77019448    -0.55300
C1263       C  0.45031378  0.64022688  0.74289908     0.07900
C1264       C  0.97883748  0.63612109  0.71878644     0.18800
C1265       C  0.48231775  0.58340113  0.74168512    -0.56000
C1266       C  0.48119805  0.60009716  0.71360264     0.08000
C1267       C  0.01049821  0.62687046  0.76545609    -0.55500
C1268       C  0.00845141  0.64421736  0.73859347     0.08500
H1269       H  0.43531279  0.62284758  0.78964506     0.13100
H1270       H  0.97769326  0.65069580  0.69676363    -0.01200
H1271       H  0.48249968  0.55815061  0.74250145     0.13400
H1272       H  0.03080114  0.62926139  0.78115635     0.13200
O1273       O  0.03179119  0.54658825  0.91097062    -0.81700
O1274       O  0.37644192  0.96685648  0.97368502    -0.83200
O1275       O  0.45496381  0.97957847  0.88473306    -0.80200
O1276       O  0.42746865  0.56253466  0.93202153    -0.78600
O1277       O  0.43518827  0.58229228  0.98154146    -0.80400
O1278       O  0.48845465  0.94025619  0.89780647    -0.81400
O1279       O  0.39143418  0.99867804  0.93133069    -0.82700
O1280       O  0.48013186  0.53900340  0.89475489    -0.83000
Eu1281     Eu  0.44876003  0.50979775  0.93313312     2.39200
O1282       O  0.42795513  0.51188814  0.98478203    -0.90500
O1283       O  0.50097912  0.99097764  0.93408106    -0.94100
C1284       C  0.50898139  0.54935315  0.89094591     1.00600
C1285       C  0.37025363  0.98317713  0.94842078     1.00400
C1286       C  0.47256221  0.95636021  0.87770701     1.00400
C1287       C  0.42603272  0.58427305  0.95263693     0.98200
H1288       H  0.43247355  0.94556070  0.93949775     0.28000
O1289       O  0.44605419  0.95820651  0.95267159    -1.02900
H1290       H  0.48499579  0.56232686  0.95321703     0.28000
O1291       O  0.48298766  0.54174679  0.96295866    -1.05400
O1292       O  0.42654476  0.93379182  0.55747964    -0.82600
O1293       O  0.08314519  0.51250884  0.99533948    -0.82200
O1294       O  0.46175609  0.89324645  0.95759430    -0.80600
O1295       O  0.40711392  0.54053094  0.54012150    -0.83900
O1296       O  0.49815792  0.59195882  0.50687266    -0.81800
O1297       O  0.05350119  0.94460070  0.92695458    -0.80400
O1298       O  0.03485436  0.92102867  0.53683985    -0.82000
O1299       O  0.00577159  0.51153696  0.58586650    -0.83900
O1300       O  0.02828835  0.90376864  0.98601551    -0.80600
O1301       O  0.47599617  0.55235038  0.56900994    -0.83300
O1302       O  0.41891442  0.90607979  0.98888414    -0.79000
O1303       O  0.07249977  0.99493085  0.93240849    -0.79100
O1304       O  0.04158944  0.57709164  0.97763333    -0.78700
O1305       O  0.38920493  0.98977942  0.53649396    -0.82200
O1306       O  0.47718451  0.94299989  0.57591967    -0.81600
O1307       O  0.06853097  0.98337490  0.53989999    -0.80000
Eu1308     Eu  0.42582295  0.96046272  0.50513686     2.39800
Eu1309     Eu  0.03453663  0.52221387  0.96471244     2.39600
Eu1310     Eu  0.49890520  0.94001402  0.95442959     2.38400
Eu1311     Eu  0.46183710  0.54450452  0.51454487     2.39900
Eu1312     Eu  0.01056449  0.97415021  0.53935682     2.39800
O1313       O  0.01445181  0.52541721  0.51748456    -0.94400
O1314       O  0.47816605  0.94215880  0.00696137    -0.93300
C1315       C  0.44853180  0.93134991  0.57834751     1.00800
C1316       C  0.08976252  0.49655813  0.52066574     0.99500
C1317       C  0.43441735  0.88664640  0.97180504     0.98900
C1318       C  0.38615364  0.51789234  0.54540516     1.00900
C1319       C  0.02543589  0.59781965  0.99220349     0.99800
C1320       C  0.07499515  0.96702006  0.92233153     0.98700
C1321       C  0.03850131  0.90087963  0.51443270     0.98700
C1322       C  0.49161267  0.53799137  0.59048244     1.01300
H1323       H  0.05126454  0.96248305  0.98663476     0.28700
O1324       O  0.03052402  0.97174741  0.98669420    -1.06500
H1325       H  0.44943601  0.99433744  0.55746204     0.30800
O1326       O  0.45864837  0.99343482  0.53629273    -1.09100
C1327       C  0.21053030  0.54629586  0.61966758     0.84900
C1328       C  0.19351945  0.53639517  0.58982536    -0.55300
C1329       C  0.20550830  0.51085968  0.57591297     0.07900
C1330       C  0.23374927  0.99696208  0.59306548     0.18800
C1331       C  0.20863399  0.51667911  0.64163580    -0.56000
C1332       C  0.22095577  0.99047825  0.62753611     0.08000
C1333       C  0.24593690  0.55003721  0.60993923    -0.55500
C1334       C  0.25820199  0.52458919  0.59606218     0.08500
H1335       H  0.17210204  0.54755910  0.58147960     0.13100
H1336       H  0.24337042  0.97674591  0.58042438    -0.01200
H1337       H  0.19879864  0.51626589  0.66564068     0.13400
H1338       H  0.26015692  0.57127715  0.61366042     0.13200
O1339       O  0.14916767  0.70212265  0.76482316    -0.81700
O1340       O  0.22549531  0.78779508  0.62116419    -0.83200
O1341       O  0.13204747  0.77323844  0.69206786    -0.80200
O1342       O  0.17797429  0.69015599  0.66414299    -0.78600
O1343       O  0.22644772  0.66891780  0.67446845    -0.80400
O1344       O  0.14283280  0.80946918  0.72995038    -0.81400
O1345       O  0.18160738  0.75585183  0.63168743    -0.82700
O1346       O  0.13755363  0.71148452  0.71251308    -0.83000
Eu1347     Eu  0.17967399  0.74176211  0.68825150     2.39200
O1348       O  0.23241259  0.73948354  0.67025921    -0.90500
O1349       O  0.17719504  0.75817227  0.74124396    -0.94100
C1350       C  0.13087406  0.70028060  0.74023958     1.00600
C1351       C  0.20026690  0.77218566  0.61263563     1.00400
C1352       C  0.12400743  0.79494660  0.71105375     1.00400
C1353       C  0.19797324  0.66786962  0.66350988     0.98200
H1354       H  0.18786245  0.80683828  0.67648568     0.28000
O1355       O  0.19996415  0.79327794  0.68994135    -1.02900
H1356       H  0.19611721  0.68703127  0.72288956     0.28000
O1357       O  0.20642481  0.70754226  0.72255408    -1.05400
O1358       O  0.30696843  0.81590197  0.67734695    -0.82600
O1359       O  0.23514349  0.73038326  0.82531411    -0.82200
O1360       O  0.20619093  0.85717443  0.70970522    -0.80600
O1361       O  0.28652574  0.71104712  0.64986454    -0.83900
O1362       O  0.25173714  0.65637085  0.73913224    -0.81800
O1363       O  0.17063515  0.80348268  0.79739181    -0.80400
O1364       O  0.27989739  0.82610701  0.78229051    -0.82000
O1365       O  0.32889444  0.73741135  0.75293430    -0.83900
O1366       O  0.22938073  0.84445380  0.77555143    -0.80600
O1367       O  0.31486677  0.69873849  0.71871376    -0.83300
O1368       O  0.24008737  0.84569275  0.66847117    -0.79000
O1369       O  0.17152623  0.75183646  0.81289949    -0.79100
O1370       O  0.21869342  0.66941385  0.78052272    -0.78700
O1371       O  0.28616717  0.76294658  0.63559833    -0.82200
O1372       O  0.32228414  0.80377785  0.72801436    -0.81600
O1373       O  0.28053906  0.76013771  0.81354889    -0.80000
Eu1374     Eu  0.25367727  0.79083387  0.67242585     2.39800
Eu1375     Eu  0.20455338  0.72442003  0.77509305     2.39600
Eu1376     Eu  0.19896011  0.80885968  0.74367813     2.38400
Eu1377     Eu  0.25957310  0.70489423  0.70398368     2.39900
Eu1378     Eu  0.28193867  0.77335396  0.75720852     2.39800
O1379       O  0.25859014  0.72240918  0.75700840    -0.94400
O1380       O  0.25255623  0.80736362  0.72520057    -0.93300
C1381       C  0.32695248  0.81616597  0.70023819     1.00800
C1382       C  0.26116611  0.74538113  0.83323119     0.99500
C1383       C  0.22274433  0.86476522  0.68409654     0.98900
C1384       C  0.29354726  0.73459070  0.63058641     1.00900
C1385       C  0.23570101  0.64957835  0.76542396     0.99800
C1386       C  0.16386402  0.78031168  0.81720078     0.98700
C1387       C  0.25793841  0.84665899  0.78608580     0.98700
C1388       C  0.33516759  0.71278557  0.73645841     1.01300
H1389       H  0.22792325  0.78309463  0.79640175     0.28700
O1390       O  0.22837080  0.77488987  0.77526012    -1.06500
H1391       H  0.30377202  0.75526729  0.69654301     0.30800
O1392       O  0.28208292  0.75594737  0.70472887    -1.09100
C1393       C  0.08568614  0.72393507  0.98235457     0.84900
C1394       C  0.11734278  0.72413025  0.50037359    -0.55300
C1395       C  0.13527927  0.75133033  0.49739296     0.07900
C1396       C  0.12037330  0.77553181  0.97511848     0.18800
C1397       C  0.06879225  0.75345125  0.99427265    -0.56000
C1398       C  0.08712867  0.78071117  0.99080088     0.08000
C1399       C  0.09521041  0.73223227  0.94768779    -0.55500
C1400       C  0.11331912  0.75912096  0.94350932     0.08500
H1401       H  0.12296667  0.70553153  0.51711933     0.13100
H1402       H  0.13624740  0.79649635  0.97170958    -0.01200
H1403       H  0.04480906  0.75303345  0.00450675     0.13400
H1404       H  0.08835032  0.71763059  0.92801434     0.13200
C1405       C  0.48055649  0.89507584  0.75815744     0.84900
C1406       C  0.50941859  0.87398869  0.75434157    -0.55300
C1407       C  0.50700838  0.85382426  0.72997563     0.07900
C1408       C  0.47633997  0.85637139  0.71135718     0.18800
C1409       C  0.47711492  0.91119837  0.72536995    -0.56000
C1410       C  0.47436499  0.89069109  0.70087217     0.08000
C1411       C  0.45167597  0.87186485  0.76092295    -0.55500
C1412       C  0.44880082  0.85266995  0.73555563     0.08500
H1413       H  0.03005740  0.87392352  0.76939098     0.13100
H1414       H  0.47458833  0.83906370  0.69220594    -0.01200
H1415       H  0.47483422  0.93626850  0.72232787     0.13400
H1416       H  0.43249237  0.87387874  0.77855220     0.13200
C1417       C  0.37309253  0.70384526  0.95850322     0.84900
C1418       C  0.34475963  0.71013937  0.93758663    -0.55300
C1419       C  0.32719970  0.73472820  0.94627438     0.07900
C1420       C  0.34051581  0.75214440  0.97517741     0.18800
C1421       C  0.39307144  0.73480222  0.95733852    -0.56000
C1422       C  0.37613438  0.76063036  0.96581343     0.08000
C1423       C  0.35943021  0.70149507  0.99248595    -0.55500
C1424       C  0.34239601  0.72642287  0.00156040     0.08500
H1425       H  0.33920875  0.69627613  0.91693767     0.13100
H1426       H  0.32552738  0.77192269  0.98195109    -0.01200
H1427       H  0.41825975  0.73610213  0.95090898     0.13400
H1428       H  0.36361313  0.68176351  0.50839368     0.13200
C1429       C  0.23409240  0.52531594  0.83093600     0.84900
C1430       C  0.25518946  0.52724795  0.86043389    -0.55300
C1431       C  0.25433614  0.00118366  0.87985909     0.07900
C1432       C  0.23089292  0.97550656  0.86836609     0.18800
C1433       C  0.24509730  0.99484615  0.81467794    -0.56000
C1434       C  0.24345460  0.96866459  0.83449164     0.08000
C1435       C  0.20021486  0.51672380  0.84402741    -0.55500
C1436       C  0.19817874  0.99059350  0.86334775     0.08500
H1437       H  0.27180474  0.54685160  0.86356800     0.13100
H1438       H  0.22902078  0.95510866  0.88489969    -0.01200
H1439       H  0.25290621  0.99389550  0.79003314     0.13400
H1440       H  0.17950608  0.53029100  0.83817666     0.13200
C1441       C  0.16722728  0.79062283  0.87492747    -0.14900
C1442       C  0.14796610  0.78540327  0.84841796     0.07300
C1443       C  0.11619273  0.77456248  0.85375343    -0.14900
C1444       C  0.10448253  0.76760981  0.88472743    -0.14900
C1445       C  0.12436756  0.77099871  0.91116633     0.07300
C1446       C  0.15553139  0.78365845  0.90596620    -0.14900
H1447       H  0.19222013  0.79765438  0.87144175     0.11200
H1448       H  0.10114674  0.76931441  0.83378835     0.11200
H1449       H  0.08019712  0.75829780  0.88787467     0.11200
H1450       H  0.17159570  0.78618853  0.92565489     0.11200
C1451       C  0.19518830  0.74265617  0.56299426    -0.14900
C1452       C  0.19208479  0.77102661  0.57874829     0.07300
C1453       C  0.17473706  0.79485511  0.56447482    -0.14900
C1454       C  0.15862893  0.78943529  0.53609511    -0.14900
C1455       C  0.15928321  0.75994161  0.52180632     0.07300
C1456       C  0.17910634  0.73720557  0.53472205    -0.14900
H1457       H  0.20825432  0.72385406  0.57380403     0.11200
H1458       H  0.17155600  0.81669199  0.57651698     0.11200
H1459       H  0.14349913  0.80747512  0.52700788     0.11200
H1460       H  0.18045922  0.71444305  0.52412086     0.11200
C1461       C  0.28972480  0.77188135  0.87716669    -0.14900
C1462       C  0.27011733  0.74673150  0.86704955     0.07300
C1463       C  0.26248329  0.72203029  0.88850721    -0.14900
C1464       C  0.27769186  0.72052462  0.91779445    -0.14900
C1465       C  0.30054139  0.74373119  0.92594736     0.07300
C1466       C  0.30474299  0.77042800  0.90646923    -0.14900
H1467       H  0.29534433  0.79172229  0.86140232     0.11200
H1468       H  0.24719761  0.70259258  0.88153969     0.11200
H1469       H  0.27443508  0.69951736  0.93247229     0.11200
H1470       H  0.32249612  0.78833946  0.91207205     0.11200
C1471       C  0.30495057  0.70270414  0.58218478    -0.14900
C1472       C  0.30955133  0.73019630  0.59922930     0.07300
C1473       C  0.32507833  0.75625248  0.58373008    -0.14900
C1474       C  0.33461333  0.75533349  0.55178737    -0.14900
C1475       C  0.32947591  0.72818106  0.53459537     0.07300
C1476       C  0.31493107  0.70169073  0.55015585    -0.14900
H1477       H  0.29254604  0.68252985  0.59315347     0.11200
H1478       H  0.32914172  0.77786136  0.59616564     0.11200
H1479       H  0.34657699  0.77567358  0.54071745     0.11200
H1480       H  0.31087926  0.68031303  0.53734346     0.11200
C1481       C  0.27433691  0.93160654  0.79956172    -0.14900
C1482       C  0.25240357  0.93652381  0.82480908     0.07300
C1483       C  0.23810052  0.91015523  0.84058695    -0.14900
C1484       C  0.24407970  0.88005576  0.83045917    -0.14900
C1485       C  0.26402133  0.87530806  0.80391045     0.07300
C1486       C  0.27988763  0.90123927  0.78903782    -0.14900
H1487       H  0.28629109  0.95119147  0.78713295     0.11200
H1488       H  0.22040942  0.91244396  0.85943287     0.11200
H1489       H  0.23062377  0.86051917  0.84152592     0.11200
H1490       H  0.29452753  0.89823326  0.76781487     0.11200
C1491       C  0.24698377  0.59070185  0.76446256    -0.14900
C1492       C  0.23625093  0.61722595  0.78045658     0.07300
C1493       C  0.22481102  0.61274325  0.81203471    -0.14900
C1494       C  0.22432449  0.58334464  0.82720248    -0.14900
C1495       C  0.23502603  0.55666379  0.81168976     0.07300
C1496       C  0.24630025  0.56079977  0.77980528    -0.14900
H1497       H  0.25568503  0.59298948  0.74006929     0.11200
H1498       H  0.21630455  0.63221623  0.82551527     0.11200
H1499       H  0.21552686  0.58143586  0.85159891     0.11200
H1500       H  0.25483199  0.54127803  0.76656543     0.11200
C1501       C  0.38364889  0.80895529  0.69371863    -0.14900
C1502       C  0.35863707  0.83001498  0.69567989     0.07300
C1503       C  0.36408702  0.85948252  0.70850509    -0.14900
C1504       C  0.39327776  0.86657592  0.72229738    -0.14900
C1505       C  0.41721665  0.84420258  0.72329955     0.07300
C1506       C  0.41281297  0.81596616  0.70763934    -0.14900
H1507       H  0.37938005  0.78571390  0.68467041     0.11200
H1508       H  0.34473074  0.87563845  0.71083040     0.11200
H1509       H  0.39694628  0.88931075  0.73266390     0.11200
H1510       H  0.43152650  0.79898613  0.70715420     0.11200
C1511       C  0.07547497  0.80164345  0.74326489    -0.14900
C1512       C  0.09053159  0.80304532  0.71321474     0.07300
C1513       C  0.07485451  0.81580364  0.68712226    -0.14900
C1514       C  0.04559342  0.83023999  0.69194020    -0.14900
C1515       C  0.03228507  0.83175762  0.72279928     0.07300
C1516       C  0.04637027  0.81573842  0.74799197    -0.14900
H1517       H  0.08721673  0.79127105  0.76346805     0.11200
H1518       H  0.08635146  0.81679219  0.66377799     0.11200
H1519       H  0.03489133  0.84241255  0.67223107     0.11200
H1520       H  0.03595899  0.81604788  0.77178916     0.11200
C1521       C  0.20097949  0.94994685  0.66938941    -0.14900
C1522       C  0.22169236  0.95876878  0.64353925     0.07300
C1523       C  0.24301845  0.93650805  0.63231097    -0.14900
C1524       C  0.24325623  0.90647440  0.64568552    -0.14900
C1525       C  0.22232169  0.89741756  0.67107818     0.07300
C1526       C  0.20138563  0.91966450  0.68306195    -0.14900
H1527       H  0.18389619  0.96606518  0.67872814     0.11200
H1528       H  0.26001359  0.94191029  0.61321069     0.11200
H1529       H  0.26011925  0.89029763  0.63592535     0.11200
H1530       H  0.18495962  0.91354489  0.70262827     0.11200
C1531       C  0.19999326  0.60259590  0.60891872    -0.14900
C1532       C  0.19803663  0.57707935  0.63080647     0.07300
C1533       C  0.18748929  0.58217340  0.66211759    -0.14900
C1534       C  0.18283777  0.61265897  0.67201795    -0.14900
C1535       C  0.18828044  0.63803413  0.65069759     0.07300
C1536       C  0.19523401  0.63283156  0.61881004    -0.14900
H1537       H  0.20782567  0.59934218  0.58452543     0.11200
H1538       H  0.18517650  0.56339486  0.67961030     0.11200
H1539       H  0.17804972  0.61668429  0.69699593     0.11200
H1540       H  0.20027806  0.65227417  0.60235475     0.11200
C1541       C  0.46000724  0.88780667  0.61297041    -0.14900
C1542       C  0.44210766  0.91445928  0.60803282     0.07300
C1543       C  0.43162741  0.93154373  0.63410413    -0.14900
C1544       C  0.44172513  0.92373939  0.66458363    -0.14900
C1545       C  0.46265985  0.89898469  0.66904357     0.11100
C1546       C  0.47067758  0.88043786  0.64311782    -0.14900
H1547       H  0.46916363  0.87505159  0.59290214     0.11200
H1548       H  0.41847053  0.95271755  0.63048599     0.11200
H1549       H  0.43404534  0.93768652  0.68433664     0.11200
H1550       H  0.48681233  0.86131186  0.64553896     0.11200
C1551       C  0.45032367  0.94780353  0.82353837    -0.14900
C1552       C  0.47601699  0.94738830  0.84436052     0.07300
C1553       C  0.50543116  0.93601810  0.83387960    -0.14900
C1554       C  0.50813971  0.92169216  0.80470656    -0.14900
C1555       C  0.48114831  0.91770649  0.78559419     0.07300
C1556       C  0.45298961  0.93323570  0.79415892    -0.14900
H1557       H  0.42767605  0.95739980  0.83079750     0.11200
H1558       H  0.02616281  0.93710222  0.84891968     0.11200
H1559       H  0.03130513  0.91312972  0.79822342     0.11200
H1560       H  0.43223866  0.93199356  0.77919172     0.11200
C1561       C  0.10846123  0.97144088  0.87277023    -0.14900
C1562       C  0.10552862  0.96196469  0.90486749     0.07300
C1563       C  0.13369550  0.95865128  0.92225349    -0.14900
C1564       C  0.16398661  0.96612311  0.90831050    -0.14900
C1565       C  0.16672456  0.97779117  0.87684475     0.07300
C1566       C  0.13865072  0.97915563  0.85890515    -0.14900
H1567       H  0.08705957  0.47575871  0.85931391     0.11200
H1568       H  0.13207170  0.95266914  0.94740066     0.11200
H1569       H  0.18498924  0.96493159  0.92286746     0.11200
H1570       H  0.13970610  0.48818679  0.83469373     0.11200
C1571       C  0.31835020  0.96047850  0.92814542    -0.14900
C1572       C  0.33674998  0.98620085  0.93819955     0.07300
C1573       C  0.32502671  0.01630716  0.93358191    -0.14900
C1574       C  0.29666626  0.02091871  0.91728357    -0.14900
C1575       C  0.27969637  0.99557468  0.90412711     0.07300
C1576       C  0.29018512  0.96511029  0.91108800    -0.14900
H1577       H  0.32699515  0.93703833  0.93128209     0.11200
H1578       H  0.33871292  0.03652864  0.94138438     0.11200
H1579       H  0.28903448  0.04462488  0.91365547     0.11200
H1580       H  0.27818164  0.94480890  0.90148686     0.11200
C1581       C  0.14796079  0.01079706  0.51252661    -0.14900
C1582       C  0.12383893  0.49279449  0.52836774     0.07300
C1583       C  0.13231918  0.47186300  0.55281450    -0.14900
C1584       C  0.16328784  0.47277939  0.56453140    -0.14900
C1585       C  0.18573721  0.49512959  0.55244321     0.07300
C1586       C  0.17901941  0.51204139  0.52456367    -0.14900
H1587       H  0.14249797  0.02628881  0.99282419     0.11200
H1588       H  0.11447490  0.45653128  0.56460547     0.11200
H1589       H  0.16805247  0.45958718  0.58609879     0.11200
H1590       H  0.19612630  0.02901656  0.51464761     0.11200
C1591       C  0.33729344  0.54911605  0.55550567    -0.14900
C1592       C  0.35579959  0.52319878  0.56254655     0.07300
C1593       C  0.34225820  0.99849247  0.58165948    -0.14900
C1594       C  0.31051527  0.99906506  0.59227625    -0.14900
C1595       C  0.29186810  0.52443100  0.58475178     0.07300
C1596       C  0.30547157  0.54977760  0.56670480    -0.14900
H1597       H  0.34680420  0.56789670  0.54006833     0.11200
H1598       H  0.35594466  0.97805548  0.58723878     0.11200
H1599       H  0.30065612  0.97968121  0.60658330     0.11200
H1600       H  0.29112958  0.56954189  0.56038866     0.11200
C1601       C  0.37992805  0.61701045  0.94758263    -0.14900
C1602       C  0.41277312  0.61387784  0.94350698     0.07300
C1603       C  0.43310934  0.64045693  0.93962456    -0.14900
C1604       C  0.42071938  0.67029354  0.94217914    -0.14900
C1605       C  0.38797420  0.67344572  0.94946357     0.07300
C1606       C  0.36764612  0.64648695  0.95060166    -0.14900
H1607       H  0.36417866  0.59661113  0.95131269     0.11200
H1608       H  0.45878083  0.63802031  0.93694711     0.11200
H1609       H  0.43716315  0.69021691  0.94047803     0.11200
H1610       H  0.34226316  0.64818652  0.95593262     0.11200
C1611       C  0.38959833  0.84725714  0.98393696    -0.14900
C1612       C  0.41937070  0.85470840  0.96883490     0.07300
C1613       C  0.43438563  0.83122947  0.95168412    -0.14900
C1614       C  0.42028335  0.80107911  0.95020596    -0.14900
C1615       C  0.39084652  0.79329705  0.96615716     0.07300
C1616       C  0.37569990  0.81715346  0.98274853    -0.14900
H1617       H  0.37703006  0.86463793  0.99727207     0.11200
H1618       H  0.45715148  0.83606339  0.93948139     0.11200
H1619       H  0.43266532  0.78409251  0.93629813     0.11200
H1620       H  0.35333164  0.81282263  0.99560799     0.11200
C1621       C  0.02353639  0.65617948  0.00273306    -0.14900
C1622       C  0.03966989  0.63035166  0.99081162     0.07300
C1623       C  0.06996977  0.63583894  0.97605817    -0.14900
C1624       C  0.08387749  0.66583677  0.97365355    -0.14900
C1625       C  0.06811398  0.69186148  0.98555356     0.07300
C1626       C  0.03754441  0.68657821  0.00015081    -0.14900
H1627       H  0.50005596  0.65294333  0.01394558     0.11200
H1628       H  0.08330464  0.61684101  0.96627620     0.11200
H1629       H  0.10737366  0.66877532  0.96235973     0.11200
H1630       H  0.02428518  0.70552880  0.00985469     0.11200
C1631       C  0.04199145  0.84536919  0.03327306    -0.14900
C1632       C  0.05667865  0.87230057  0.51914833     0.07300
C1633       C  0.08303078  0.86890852  0.49848687    -0.14900
C1634       C  0.09269239  0.83944474  0.98963291    -0.14900
C1635       C  0.07718216  0.81211540  0.00217508     0.07300
C1636       C  0.05244829  0.81550878  0.02522205    -0.14900
H1637       H  0.02093275  0.84730621  0.04851364     0.11200
H1638       H  0.09399293  0.88925495  0.48634486     0.11200
H1639       H  0.11104016  0.83868808  0.97125964     0.11200
H1640       H  0.04025543  0.79524913  0.03615289     0.11200
C1641       C  0.97441509  0.59845324  0.65398617    -0.14900
C1642       C  0.48541256  0.58450967  0.68191853     0.07300
C1643       C  0.50068451  0.55544249  0.67923884    -0.14900
C1644       C  0.50355752  0.54034270  0.64986571    -0.14900
C1645       C  0.49163882  0.55399003  0.62210085     0.07300
C1646       C  0.97750799  0.58358257  0.62474886    -0.14900
H1647       H  0.96261100  0.62058411  0.65464886     0.11200
H1648       H  0.51070220  0.54414910  0.69981129     0.11200
H1649       H  0.51472788  0.51787224  0.64901717     0.11200
H1650       H  0.96808999  0.59535818  0.60410334     0.11200
C1651       C  0.50461380  0.55857705  0.80497887    -0.14900
C1652       C  0.48974301  0.58765980  0.80312022     0.07300
C1653       C  0.98890777  0.60619386  0.83038845    -0.14900
C1654       C  0.00123589  0.59550980  0.85885323    -0.14900
C1655       C  0.51400472  0.56578716  0.86095827     0.07300
C1656       C  0.51623656  0.54762199  0.83378598    -0.14900
H1657       H  0.50773129  0.54415489  0.78450658     0.11200
H1658       H  0.97922464  0.62937515  0.82943914     0.11200
H1659       H  0.99815943  0.60927658  0.87997157     0.11200
H1660       H  0.52483518  0.52400909  0.83543024     0.11200
C1661       C  0.40608642  0.66415589  0.71166714    -0.14900
C1662       C  0.42385569  0.66287543  0.73944774     0.07300
C1663       C  0.41429996  0.68132006  0.76526686    -0.14900
C1664       C  0.38663418  0.69926783  0.76392729    -0.14900
C1665       C  0.36753270  0.69870845  0.73692635     0.07300
C1666       C  0.37816984  0.68158231  0.71052277    -0.14900
H1667       H  0.41278769  0.65033245  0.69145307     0.11200
H1668       H  0.42783136  0.68115758  0.78692535     0.11200
H1669       H  0.37931709  0.71218479  0.78456638     0.11200
H1670       H  0.36427188  0.68089186  0.68910187     0.11200
C1671       C  0.06132651  0.65177376  0.71411029    -0.14900
C1672       C  0.03591567  0.66501894  0.73068067     0.07300
C1673       C  0.04229537  0.68967822  0.75145510    -0.14900
C1674       C  0.07382738  0.69959851  0.75701981    -0.14900
C1675       C  0.09928066  0.68492122  0.74189866     0.07300
C1676       C  0.09274034  0.66157781  0.71974625    -0.14900
H1677       H  0.05702830  0.63197341  0.69898283     0.11200
H1678       H  0.02298162  0.69942061  0.76530378     0.11200
H1679       H  0.07833721  0.71894232  0.77266224     0.11200
H1680       H  0.11212515  0.65114525  0.70656031     0.11200
C1681       C  0.98301577  0.10323674  0.27168888     0.84900
C1682       C  0.95257812  0.12228598  0.27028177    -0.55300
C1683       C  0.95002991  0.13993267  0.24297401     0.07900
C1684       C  0.47857487  0.13590453  0.21888033     0.18800
C1685       C  0.98215858  0.08320481  0.24179747    -0.56000
C1686       C  0.98099629  0.09989707  0.21370915     0.08000
C1687       C  0.51025283  0.12674053  0.26554518    -0.55500
C1688       C  0.50818183  0.14406719  0.23867978     0.08500
H1689       H  0.93504224  0.12255386  0.28971824     0.13100
H1690       H  0.47739565  0.15047484  0.19685916    -0.01200
H1691       H  0.98241678  0.05795763  0.24261225     0.13400
H1692       H  0.53055806  0.12917259  0.28123662     0.13200
O1693       O  0.53184889  0.04689201  0.41112106    -0.81700
O1694       O  0.87627597  0.46666268  0.47379839    -0.83200
O1695       O  0.95490214  0.47953262  0.38457205    -0.80200
O1696       O  0.92739199  0.06250975  0.43213461    -0.78600
O1697       O  0.93496187  0.08227607  0.48167384    -0.80400
O1698       O  0.98861773  0.44041104  0.39768542    -0.81400
O1699       O  0.89116883  0.49847636  0.43139756    -0.82700
O1700       O  0.98019176  0.03924198  0.39494935    -0.83000
Eu1701     Eu  0.94893433  0.00991326  0.43326136     2.39200
O1702       O  0.92800819  0.01205468  0.48485694    -0.90500
O1703       O  0.00080642  0.49086625  0.43405500    -0.94100
C1704       C  0.00901450  0.04964319  0.39112936     1.00600
C1705       C  0.87002317  0.48295845  0.44854037     1.00400
C1706       C  0.97267829  0.45643376  0.37755948     1.00400
C1707       C  0.92584062  0.08422415  0.45275874     0.98200
H1708       H  0.93235096  0.44544356  0.43942759     0.28000
O1709       O  0.94592471  0.45809754  0.45260066    -1.02900
H1710       H  0.98501086  0.06252883  0.45330681     0.28000
O1711       O  0.98306690  0.04194840  0.46305815    -1.05400
O1712       O  0.92641844  0.43377126  0.05753012    -0.82600
O1713       O  0.58305424  0.01270668  0.49556003    -0.82200
O1714       O  0.96163687  0.39312492  0.45734983    -0.80600
O1715       O  0.90721774  0.04061037  0.04038151    -0.83900
O1716       O  0.99803774  0.09223191  0.00673474    -0.81800
O1717       O  0.55348789  0.44441807  0.42709044    -0.80400
O1718       O  0.53458189  0.42096952  0.03701024    -0.82000
O1719       O  0.50584593  0.01163409  0.08586934    -0.83900
O1720       O  0.52789122  0.40363466  0.48622017    -0.80600
O1721       O  0.97613721  0.05250668  0.06903091    -0.83300
O1722       O  0.91886346  0.40596842  0.48872492    -0.79000
O1723       O  0.57237487  0.49481354  0.43231602    -0.79100
O1724       O  0.54155933  0.07733318  0.47761665    -0.78700
O1725       O  0.88903291  0.48970180  0.03626735    -0.82200
O1726       O  0.97713815  0.44285462  0.07582381    -0.81600
O1727       O  0.56864567  0.48316259  0.03967321    -0.80000
Eu1728     Eu  0.92574526  0.46031005  0.00509810     2.39800
Eu1729     Eu  0.53460042  0.02239214  0.46478492     2.39600
Eu1730     Eu  0.99878714  0.43990706  0.45437932     2.38400
Eu1731     Eu  0.96186813  0.04466646  0.01461838     2.39900
Eu1732     Eu  0.51053890  0.47408570  0.03932577     2.39800
O1733       O  0.51447094  0.02553253  0.01754599    -0.94400
O1734       O  0.97810150  0.44209348  0.50692172    -0.93300
C1735       C  0.94845737  0.43128722  0.07834252     1.00800
C1736       C  0.58963392  0.99677531  0.02088567     0.99500
C1737       C  0.93432056  0.38653138  0.47161068     0.98900
C1738       C  0.88629382  0.01793625  0.04567027     1.00900
C1739       C  0.52534451  0.09809259  0.49208303     0.99800
C1740       C  0.57492585  0.46687332  0.42236864     0.98700
C1741       C  0.53813491  0.40079175  0.01464449     0.98700
C1742       C  0.99172629  0.03810698  0.09049253     1.01300
H1743       H  0.55119881  0.46229555  0.48658447     0.28700
O1744       O  0.53047091  0.47158562  0.48664834    -1.06500
H1745       H  0.94935459  0.49420447  0.05742984     0.30800
O1746       O  0.95858009  0.49328645  0.03626680    -1.09100
C1747       C  0.71036091  0.04620973  0.11932184     0.84900
C1748       C  0.69332466  0.03622775  0.08953374    -0.55300
C1749       C  0.70537787  0.01071598  0.07564082     0.07900
C1750       C  0.73381068  0.49698603  0.09340709     0.18800
C1751       C  0.70861721  0.01661214  0.14131898    -0.56000
C1752       C  0.72095202  0.49053999  0.12785558     0.08000
C1753       C  0.74573822  0.05006260  0.10952383    -0.55500
C1754       C  0.75806850  0.02463094  0.09566511     0.08500
H1755       H  0.67184871  0.04730722  0.08121596     0.13100
H1756       H  0.74339351  0.47668113  0.08086096    -0.01200
H1757       H  0.69881712  0.01622099  0.16532828     0.13400
H1758       H  0.75990282  0.07133184  0.11326354     0.13200
O1759       O  0.64886376  0.20234867  0.26460233    -0.81700
O1760       O  0.72566617  0.28800683  0.12092793    -0.83200
O1761       O  0.63200977  0.27292058  0.19158514    -0.80200
O1762       O  0.67785785  0.18999404  0.16380137    -0.78600
O1763       O  0.72619749  0.16860870  0.17433970    -0.80400
O1764       O  0.64265662  0.30888572  0.22974926    -0.81400
O1765       O  0.68184232  0.25591794  0.13124085    -0.82700
O1766       O  0.63729193  0.21175918  0.21227050    -0.83000
Eu1767     Eu  0.67969102  0.24161543  0.18783524     2.39200
O1768       O  0.73244463  0.23939600  0.16988397    -0.90500
O1769       O  0.67725917  0.25794631  0.24085007    -0.94100
C1770       C  0.63053973  0.20063033  0.24002424     1.00600
C1771       C  0.70049334  0.27238058  0.11227310     1.00400
C1772       C  0.62388915  0.29442306  0.21076872     1.00400
C1773       C  0.69775050  0.16762343  0.16330245     0.98200
H1774       H  0.68783441  0.30676232  0.17616265     0.28000
O1775       O  0.69990043  0.29317886  0.18962916    -1.02900
H1776       H  0.69589765  0.18693284  0.22270282     0.28000
O1777       O  0.70623400  0.20743160  0.22238190    -1.05400
O1778       O  0.80698957  0.31576040  0.17759135    -0.82600
O1779       O  0.73495766  0.23069382  0.32535544    -0.82200
O1780       O  0.70602437  0.35710778  0.20971368    -0.80600
O1781       O  0.78639096  0.21109077  0.14970469    -0.83900
O1782       O  0.75164040  0.15616427  0.23878445    -0.81800
O1783       O  0.67031403  0.30353772  0.29703943    -0.80400
O1784       O  0.77939366  0.32607561  0.28207330    -0.82000
O1785       O  0.82845344  0.23687271  0.25279551    -0.83900
O1786       O  0.72882712  0.34430363  0.27539420    -0.80600
O1787       O  0.81453516  0.19832597  0.21838170    -0.83300
O1788       O  0.74019068  0.34576914  0.16865119    -0.79000
O1789       O  0.67115170  0.25192855  0.31267918    -0.79100
O1790       O  0.71891114  0.16931608  0.28039003    -0.78700
O1791       O  0.78641109  0.26304311  0.13553656    -0.82200
O1792       O  0.82217984  0.30354569  0.22828235    -0.81600
O1793       O  0.78044630  0.26027789  0.31353696    -0.80000
Eu1794     Eu  0.75368674  0.29079544  0.17230431     2.39800
Eu1795     Eu  0.70436835  0.22431257  0.27502319     2.39600
Eu1796     Eu  0.69876711  0.30865771  0.24340900     2.38400
Eu1797     Eu  0.75933741  0.20472961  0.20374162     2.39900
Eu1798     Eu  0.78168375  0.27314970  0.25716160     2.39800
O1799       O  0.75834509  0.22221274  0.25682109    -0.94400
O1800       O  0.75241196  0.30720363  0.22510844    -0.93300
C1801       C  0.82690204  0.31599150  0.20054807     1.00800
C1802       C  0.76102537  0.24566445  0.33326731     0.99500
C1803       C  0.72275609  0.36479744  0.18425242     0.98900
C1804       C  0.79364753  0.23464316  0.13051829     1.00900
C1805       C  0.73580389  0.14943022  0.26519720     0.99800
C1806       C  0.66345808  0.28042838  0.31688875     0.98700
C1807       C  0.75738045  0.34659333  0.28588967     0.98700
C1808       C  0.83476189  0.21227996  0.23625734     1.01300
H1809       H  0.72762772  0.28304381  0.29627804     0.28700
O1810       O  0.72811834  0.27478125  0.27516144    -1.06500
H1811       H  0.80359675  0.25508627  0.19654856     0.30800
O1812       O  0.78188422  0.25577873  0.20466641    -1.09100
C1813       C  0.58564286  0.22425149  0.48227133     0.84900
C1814       C  0.61743081  0.22446794  0.00008354    -0.55300
C1815       C  0.63531455  0.25171071  0.99706469     0.07900
C1816       C  0.62021449  0.27591364  0.47492411     0.18800
C1817       C  0.56878448  0.25370207  0.49435559    -0.56000
C1818       C  0.58706144  0.28098585  0.49083932     0.08000
C1819       C  0.59492591  0.23264695  0.44755609    -0.55500
C1820       C  0.61296818  0.25957652  0.44330127     0.08500
H1821       H  0.62317826  0.20585908  0.01676754     0.13100
H1822       H  0.63603600  0.29690526  0.47147888    -0.01200
H1823       H  0.54485352  0.25322540  0.50471398     0.13400
H1824       H  0.58795556  0.21806550  0.42790653     0.13200
C1825       C  0.98079230  0.39482789  0.25816123     0.84900
C1826       C  0.00967116  0.37379911  0.25429485    -0.55300
C1827       C  0.00724598  0.35367410  0.22989448     0.07900
C1828       C  0.97656668  0.35623477  0.21127036     0.18800
C1829       C  0.97732008  0.41101689  0.22540816    -0.56000
C1830       C  0.97456672  0.39057680  0.20085296     0.08000
C1831       C  0.95196050  0.37155840  0.26090741    -0.55500
C1832       C  0.94903706  0.35245241  0.23547294     0.08500
H1833       H  0.53030385  0.37373354  0.26935435     0.13100
H1834       H  0.97483311  0.33895315  0.19209953    -0.01200
H1835       H  0.97504584  0.43609396  0.22243880     0.13400
H1836       H  0.93283818  0.37345715  0.27862129     0.13200
C1837       C  0.87306215  0.20380825  0.45841414     0.84900
C1838       C  0.84476467  0.21026354  0.43749076    -0.55300
C1839       C  0.82723298  0.23483478  0.44629940     0.07900
C1840       C  0.84055126  0.25208348  0.47530867     0.18800
C1841       C  0.89307734  0.23476508  0.45739326    -0.56000
C1842       C  0.87613320  0.26054315  0.46595705     0.08000
C1843       C  0.85934822  0.20129211  0.49236493    -0.55500
C1844       C  0.84242798  0.22624854  0.50157645     0.08500
H1845       H  0.83923196  0.19655328  0.41673250     0.13100
H1846       H  0.82566901  0.27192405  0.48217039    -0.01200
H1847       H  0.91825073  0.23618948  0.45086281     0.13400
H1848       H  0.86348817  0.18149294  0.00821055     0.13200
C1849       C  0.73416515  0.02516095  0.33075498     0.84900
C1850       C  0.75521666  0.02725243  0.36026598    -0.55300
C1851       C  0.75424044  0.50109705  0.37991006     0.07900
C1852       C  0.73072957  0.47552087  0.36834101     0.18800
C1853       C  0.74490481  0.49503086  0.31471447    -0.56000
C1854       C  0.74318748  0.46877512  0.33440764     0.08000
C1855       C  0.70028596  0.01652058  0.34381097    -0.55500
C1856       C  0.69806122  0.49073057  0.36346519     0.08500
H1857       H  0.77180243  0.04689939  0.36327138     0.13100
H1858       H  0.72886611  0.45504079  0.38478024    -0.01200
H1859       H  0.75263622  0.49412242  0.29004387     0.13400
H1860       H  0.67954627  0.03000082  0.33785999     0.13200
C1861       C  0.66652671  0.29140591  0.37454301    -0.14900
C1862       C  0.64741368  0.28566916  0.34803795     0.07300
C1863       C  0.61571304  0.27461457  0.35341944    -0.14900
C1864       C  0.60401467  0.26778385  0.38443554    -0.14900
C1865       C  0.62384004  0.27151857  0.41088565     0.07300
C1866       C  0.65484791  0.28455540  0.40561959    -0.14900
H1867       H  0.69144291  0.29871333  0.37105251     0.11200
H1868       H  0.60074481  0.26907854  0.33347520     0.11200
H1869       H  0.57981463  0.25825478  0.38760297     0.11200
H1870       H  0.67086460  0.28742673  0.42529701     0.11200
C1871       C  0.69561088  0.24313081  0.06239108    -0.14900
C1872       C  0.69235729  0.27138387  0.07833369     0.07300
C1873       C  0.67485684  0.29518438  0.06419237    -0.14900
C1874       C  0.65869415  0.28980502  0.03582179    -0.14900
C1875       C  0.65941707  0.26036742  0.02141018     0.07300
C1876       C  0.67944274  0.23770775  0.03414659    -0.14900
H1877       H  0.70882692  0.22435898  0.07306020     0.11200
H1878       H  0.67158100  0.31694657  0.07634467     0.11200
H1879       H  0.64345310  0.30780920  0.02685693     0.11200
H1880       H  0.68087981  0.21500165  0.02343982     0.11200
C1881       C  0.78997231  0.27209240  0.37707318    -0.14900
C1882       C  0.77005709  0.24709153  0.36709706     0.07300
C1883       C  0.76229603  0.22251497  0.38866738    -0.14900
C1884       C  0.77758800  0.22096656  0.41791648    -0.14900
C1885       C  0.80065610  0.24400770  0.42594631     0.07300
C1886       C  0.80509581  0.27058475  0.40632933    -0.14900
H1887       H  0.79574886  0.29183333  0.36122623     0.11200
H1888       H  0.74682178  0.20317602  0.38181396     0.11200
H1889       H  0.77418338  0.20002915  0.43267450     0.11200
H1890       H  0.82305978  0.28834199  0.41180706     0.11200
C1891       C  0.80485258  0.20273376  0.08215504    -0.14900
C1892       C  0.80975917  0.23014384  0.09925813     0.07300
C1893       C  0.82572148  0.25602122  0.08389839    -0.14900
C1894       C  0.83531514  0.25503864  0.05197934    -0.14900
C1895       C  0.82972205  0.22802844  0.03467559     0.07300
C1896       C  0.81485551  0.20166669  0.05014657    -0.14900
H1897       H  0.79214895  0.18269322  0.09304989     0.11200
H1898       H  0.83005768  0.27753956  0.09641371     0.11200
H1899       H  0.84763148  0.27522082  0.04101157     0.11200
H1900       H  0.81052217  0.18037773  0.03726610     0.11200
C1901       C  0.77391505  0.43160677  0.29940877    -0.14900
C1902       C  0.75187657  0.43660758  0.32454963     0.07300
C1903       C  0.73726057  0.41029411  0.34013424    -0.14900
C1904       C  0.74316629  0.38016807  0.33003301    -0.14900
C1905       C  0.76334965  0.37531311  0.30367805     0.07300
C1906       C  0.77940142  0.40120347  0.28890360    -0.14900
H1907       H  0.78604914  0.45115907  0.28709092     0.11200
H1908       H  0.71943888  0.41267590  0.35884705     0.11200
H1909       H  0.72952491  0.36069300  0.34099087     0.11200
H1910       H  0.79419043  0.39814160  0.26779248     0.11200
C1911       C  0.74688846  0.09047697  0.26414813    -0.14900
C1912       C  0.73642924  0.11706917  0.28023287     0.07300
C1913       C  0.72524369  0.11263389  0.31189272    -0.14900
C1914       C  0.72465234  0.08321964  0.32702890    -0.14900
C1915       C  0.73509100  0.05647838  0.31144605     0.07300
C1916       C  0.74615655  0.06055928  0.27948669    -0.14900
H1917       H  0.75538629  0.09271990  0.23968528     0.11200
H1918       H  0.71697432  0.13215325  0.32544908     0.11200
H1919       H  0.71601431  0.08135164  0.35147953     0.11200
H1920       H  0.75444475  0.04097639  0.26618071     0.11200
C1921       C  0.88364078  0.30906312  0.19352157    -0.14900
C1922       C  0.85853975  0.32995438  0.19613070     0.07300
C1923       C  0.86394270  0.35917871  0.20949465    -0.14900
C1924       C  0.89325853  0.36621403  0.22303491    -0.14900
C1925       C  0.91739070  0.34401896  0.22328637     0.07300
C1926       C  0.91296561  0.31603119  0.20716548    -0.14900
H1927       H  0.87939248  0.28597155  0.18409915     0.11200
H1928       H  0.84450075  0.37515791  0.21237744     0.11200
H1929       H  0.89686662  0.38876855  0.23379526     0.11200
H1930       H  0.93177616  0.29917544  0.20614238     0.11200
C1931       C  0.57546261  0.30115051  0.24308871    -0.14900
C1932       C  0.59042403  0.30244933  0.21299023     0.07300
C1933       C  0.57478572  0.31532320  0.18694369    -0.14900
C1934       C  0.54565359  0.32994502  0.19183268    -0.14900
C1935       C  0.53245598  0.33156026  0.22272117     0.07300
C1936       C  0.54650620  0.31548445  0.24789947    -0.14900
H1937       H  0.58720822  0.29072969  0.26326580     0.11200
H1938       H  0.58624776  0.31628322  0.16358281     0.11200
H1939       H  0.53497598  0.34217911  0.17214746     0.11200
H1940       H  0.53618076  0.31589351  0.27172729     0.11200
C1941       C  0.70039789  0.44976193  0.16914512    -0.14900
C1942       C  0.72170655  0.45886171  0.14387648     0.07300
C1943       C  0.74365171  0.43691546  0.13321448    -0.14900
C1944       C  0.74396334  0.40688407  0.14660911    -0.14900
C1945       C  0.72240448  0.39751228  0.17138089     0.07300
C1946       C  0.70081957  0.41946801  0.18279624    -0.14900
H1947       H  0.68283306  0.46567219  0.17797530     0.11200
H1948       H  0.76101199  0.44258869  0.11450511     0.11200
H1949       H  0.76132204  0.39093599  0.13732463     0.11200
H1950       H  0.68387917  0.41309049  0.20185389     0.11200
C1951       C  0.69952897  0.10245637  0.10860338    -0.14900
C1952       C  0.69775145  0.07693020  0.13048348     0.07300
C1953       C  0.68725065  0.08196164  0.16182129    -0.14900
C1954       C  0.68257159  0.11241649  0.17177594    -0.14900
C1955       C  0.68795672  0.13781745  0.15048380     0.07300
C1956       C  0.69472670  0.13266709  0.11854915    -0.14900
H1957       H  0.70728025  0.09924256  0.08417890     0.11200
H1958       H  0.68502096  0.06317258  0.17930473     0.11200
H1959       H  0.67784929  0.11640082  0.19677252     0.11200
H1960       H  0.69965522  0.15213660  0.10209892     0.11200
C1961       C  0.95980579  0.38771994  0.11298902    -0.14900
C1962       C  0.94207102  0.41448575  0.10809036     0.07300
C1963       C  0.93190382  0.43171535  0.13418110    -0.14900
C1964       C  0.94210376  0.42389082  0.16462058    -0.14900
C1965       C  0.96284112  0.39896379  0.16903796     0.11100
C1966       C  0.97060361  0.38033860  0.14308941    -0.14900
H1967       H  0.96874860  0.37485932  0.09290022     0.11200
H1968       H  0.91890355  0.45298956  0.13059063     0.11200
H1969       H  0.93463062  0.43794057  0.18437105     0.11200
H1970       H  0.98662728  0.36111552  0.14543911     0.11200
C1971       C  0.95045298  0.44757315  0.32347069    -0.14900
C1972       C  0.97619853  0.44741752  0.34422713     0.07300
C1973       C  0.00564676  0.43608805  0.33376233    -0.14900
C1974       C  0.00834876  0.42157593  0.30467467    -0.14900
C1975       C  0.98133630  0.41742897  0.28561847     0.07300
C1976       C  0.95312273  0.43286434  0.29417686    -0.14900
H1977       H  0.92776248  0.45707833  0.33072988     0.11200
H1978       H  0.52639950  0.43733477  0.34875828     0.11200
H1979       H  0.53152453  0.41303501  0.29818451     0.11200
H1980       H  0.93234237  0.43146935  0.27926028     0.11200
C1981       C  0.60833902  0.47174832  0.37288652    -0.14900
C1982       C  0.60542901  0.46188259  0.40486745     0.07300
C1983       C  0.63360169  0.45838192  0.42220221    -0.14900
C1984       C  0.66388607  0.46597484  0.40830031    -0.14900
C1985       C  0.66659937  0.47795463  0.37694447     0.07300
C1986       C  0.63850720  0.47958472  0.35907162    -0.14900
H1987       H  0.58717951  0.97528522  0.35912599     0.11200
H1988       H  0.63198995  0.45215035  0.44729279     0.11200
H1989       H  0.68490477  0.46459890  0.42281431     0.11200
H1990       H  0.63986592  0.98752866  0.33444168     0.11200
C1991       C  0.81837288  0.46020114  0.42778504    -0.14900
C1992       C  0.83647435  0.48588758  0.43839478     0.07300
C1993       C  0.82446196  0.51594576  0.43429138    -0.14900
C1994       C  0.79615459  0.52059059  0.41789163    -0.14900
C1995       C  0.77951094  0.49533931  0.40421148     0.07300
C1996       C  0.79024464  0.46487602  0.41068676    -0.14900
H1997       H  0.82724568  0.43680439  0.43050756     0.11200
H1998       H  0.83792056  0.53613074  0.44251461     0.11200
H1999       H  0.78831611  0.54426848  0.41456621     0.11200
H2000       H  0.77848089  0.44466532  0.40063829     0.11200
C2001       C  0.64811821  0.51093637  0.01255184    -0.14900
C2002       C  0.62366113  0.99288423  0.02851553     0.07300
C2003       C  0.63210188  0.97190691  0.05293344    -0.14900
C2004       C  0.66312283  0.97264873  0.06449167    -0.14900
C2005       C  0.68563127  0.99487509  0.05226215     0.07300
C2006       C  0.67891996  0.01173886  0.02436321    -0.14900
H2007       H  0.64265263  0.52637864  0.49282648     0.11200
H2008       H  0.61421774  0.95668449  0.06481593     0.11200
H2009       H  0.66790389  0.95947331  0.08606567     0.11200
H2010       H  0.69616077  0.52948309  0.01498298     0.11200
C2011       C  0.83757655  0.04931200  0.05599046    -0.14900
C2012       C  0.85588013  0.02318525  0.06275594     0.07300
C2013       C  0.84246329  0.49869429  0.08188895    -0.14900
C2014       C  0.81080310  0.49927104  0.09275900    -0.14900
C2015       C  0.79179202  0.02444656  0.08452090     0.07300
C2016       C  0.80568023  0.04998546  0.06696550    -0.14900
H2017       H  0.84730324  0.06826953  0.04090849     0.11200
H2018       H  0.85631944  0.47842155  0.08766596     0.11200
H2019       H  0.80118045  0.48008031  0.10746725     0.11200
H2020       H  0.79151136  0.06992857  0.06084391     0.11200
C2021       C  0.87985228  0.11705050  0.44662900    -0.14900
C2022       C  0.91278410  0.11387920  0.44352934     0.07300
C2023       C  0.93325988  0.14042549  0.44053434    -0.14900
C2024       C  0.92088644  0.17025256  0.44299532    -0.14900
C2025       C  0.88796991  0.17345173  0.44928331     0.07300
C2026       C  0.86756105  0.14654285  0.44961842    -0.14900
H2027       H  0.86397715  0.09665823  0.44969139     0.11200
H2028       H  0.95898290  0.13793987  0.43867202     0.11200
H2029       H  0.93744324  0.19010514  0.44213317     0.11200
H2030       H  0.84206642  0.14826307  0.45430956     0.11200
C2031       C  0.89016807  0.34679879  0.48501308    -0.14900
C2032       C  0.91925146  0.35459072  0.46873265     0.07300
C2033       C  0.93354032  0.33145841  0.45048504    -0.14900
C2034       C  0.91943850  0.30129612  0.44911103    -0.14900
C2035       C  0.89075583  0.29319774  0.46622447     0.07300
C2036       C  0.87625909  0.31670431  0.48385949    -0.14900
H2037       H  0.87817636  0.36389158  0.49924318     0.11200
H2038       H  0.95571446  0.33658161  0.43732239     0.11200
H2039       H  0.93116004  0.28451911  0.43436795     0.11200
H2040       H  0.85442274  0.31205862  0.49753232     0.11200
C2041       C  0.52357885  0.15643011  0.50289442    -0.14900
C2042       C  0.53954202  0.13065412  0.49062518     0.07300
C2043       C  0.56969579  0.13620534  0.47558401    -0.14900
C2044       C  0.58365197  0.16619254  0.47327495    -0.14900
C2045       C  0.56806256  0.19216568  0.48550676     0.07300
C2046       C  0.53762515  0.18682462  0.50038985    -0.14900
H2047       H  0.00021777  0.15315190  0.51436381     0.11200
H2048       H  0.58289449  0.11725970  0.46551701     0.11200
H2049       H  0.60704053  0.16916544  0.46176396     0.11200
H2050       H  0.52450500  0.20571904  0.51039383     0.11200
C2051       C  0.54181620  0.34535371  0.53353238    -0.14900
C2052       C  0.55639408  0.37232613  0.01939754     0.07300
C2053       C  0.58281070  0.36909739  0.99880089    -0.14900
C2054       C  0.59255267  0.33969679  0.48987157    -0.14900
C2055       C  0.57711972  0.31230991  0.50236421     0.07300
C2056       C  0.55241468  0.31556458  0.52546960    -0.14900
H2057       H  0.52074937  0.34720018  0.54878064     0.11200
H2058       H  0.59370511  0.38950715  0.98671028     0.11200
H2059       H  0.61089578  0.33905379  0.47148739     0.11200
H2060       H  0.54032273  0.29525422  0.53640544     0.11200
C2061       C  0.47426552  0.09835252  0.15409362    -0.14900
C2062       C  0.98524344  0.08436165  0.18201268     0.07300
C2063       C  0.00060194  0.05534914  0.17929099    -0.14900
C2064       C  0.00360048  0.04035122  0.14987794    -0.14900
C2065       C  0.99171882  0.05405243  0.12212553     0.07300
C2066       C  0.47750739  0.08359872  0.12481559    -0.14900
H2067       H  0.46237733  0.12043694  0.15479038     0.11200
H2068       H  0.01059610  0.04402628  0.19985840     0.11200
H2069       H  0.01482766  0.01791110  0.14898897     0.11200
H2070       H  0.46811307  0.09541250  0.10417997     0.11200
C2071       C  0.00428216  0.05847517  0.30522427    -0.14900
C2072       C  0.98952377  0.08759713  0.30326879     0.07300
C2073       C  0.48879261  0.10625599  0.33045361    -0.14900
C2074       C  0.50123105  0.09570185  0.35891483    -0.14900
C2075       C  0.01398637  0.06598313  0.36110151     0.07300
C2076       C  0.01603393  0.04766625  0.33402197    -0.14900
H2077       H  0.00723516  0.04391776  0.28483206     0.11200
H2078       H  0.47914557  0.12945150  0.32942260     0.11200
H2079       H  0.49826085  0.10957247  0.37997607     0.11200
H2080       H  0.02456784  0.02403392  0.33575598     0.11200
C2081       C  0.90566279  0.16350078  0.21170203    -0.14900
C2082       C  0.92346475  0.16241918  0.23946495     0.07300
C2083       C  0.91385536  0.18090122  0.26522787    -0.14900
C2084       C  0.88615794  0.19878267  0.26382422    -0.14900
C2085       C  0.86708154  0.19812387  0.23681455     0.07300
C2086       C  0.87771732  0.18087138  0.21049052    -0.14900
H2087       H  0.91238837  0.14959962  0.19155146     0.11200
H2088       H  0.92739204  0.18084527  0.28688322     0.11200
H2089       H  0.87882042  0.21176411  0.28441142     0.11200
H2090       H  0.86382251  0.18006741  0.18907181     0.11200
C2091       C  0.56112213  0.15165057  0.21429110    -0.14900
C2092       C  0.53563371  0.16489636  0.23074459     0.07300
C2093       C  0.54189262  0.18974039  0.25133259    -0.14900
C2094       C  0.57338423  0.19994453  0.25672813    -0.14900
C2095       C  0.59891709  0.18529234  0.24169705     0.07300
C2096       C  0.59248746  0.16170740  0.21978759    -0.14900
H2097       H  0.55693331  0.13168918  0.19935181     0.11200
H2098       H  0.52253034  0.19946483  0.26512837     0.11200
H2099       H  0.57779846  0.21943549  0.27220906     0.11200
H2100       H  0.61192636  0.15124661  0.20670835     0.11200
C2101       C  0.98300974  0.10323173  0.77169346     0.84900
C2102       C  0.95257012  0.12227662  0.77028469    -0.55300
C2103       C  0.95002277  0.13992496  0.74297835     0.07900
C2104       C  0.47857137  0.13590156  0.71888431     0.18800
C2105       C  0.98215712  0.08320115  0.74180198    -0.56000
C2106       C  0.98099802  0.09989394  0.71371419     0.08000
C2107       C  0.51024366  0.12673750  0.76555287    -0.55500
C2108       C  0.50817572  0.14406489  0.73868761     0.08500
H2109       H  0.93503147  0.12253974  0.78971902     0.13100
H2110       H  0.47739429  0.15047315  0.69686395    -0.01200
H2111       H  0.98241409  0.05795399  0.74261761     0.13400
H2112       H  0.53054640  0.12916957  0.78124740     0.13200
O2113       O  0.53184166  0.04689052  0.91111572    -0.81700
O2114       O  0.87628203  0.46665795  0.97379081    -0.83200
O2115       O  0.95491546  0.47953373  0.88457155    -0.80200
O2116       O  0.92738125  0.06248789  0.93211635    -0.78600
O2117       O  0.93493801  0.08225276  0.98165834    -0.80400
O2118       O  0.98862737  0.44041012  0.89768874    -0.81400
O2119       O  0.89117509  0.49847573  0.93139284    -0.82700
O2120       O  0.98019051  0.03922451  0.89494153    -0.83000
Eu2121     Eu  0.94893354  0.00989769  0.93325498     2.39200
O2122       O  0.92800697  0.01204478  0.98484926    -0.90500
O2123       O  0.00081111  0.49087102  0.93405567    -0.94100
C2124       C  0.00901086  0.04963360  0.89112456     1.00600
C2125       C  0.87002972  0.48295532  0.94853354     1.00400
C2126       C  0.97269047  0.45643309  0.87756151     1.00400
C2127       C  0.92581615  0.08419826  0.95274320     0.98200
H2128       H  0.93235791  0.44544456  0.93942276     0.28000
O2129       O  0.94593001  0.45809983  0.95259632    -1.02900
H2130       H  0.98500247  0.06252153  0.95329606     0.28000
O2131       O  0.98306266  0.04194121  0.96304817    -1.05400
O2132       O  0.92641124  0.43378008  0.55753674    -0.82600
O2133       O  0.58305679  0.01271288  0.99554919    -0.82200
O2134       O  0.96165254  0.39312110  0.95734565    -0.80600
O2135       O  0.90721904  0.04061677  0.54038852    -0.83900
O2136       O  0.99804856  0.09223387  0.50673954    -0.81800
O2137       O  0.55349515  0.44442742  0.92709736    -0.80400
O2138       O  0.53458320  0.42096574  0.53700747    -0.82000
O2139       O  0.50584687  0.01162686  0.58587589    -0.83900
O2140       O  0.52789046  0.40363583  0.98622374    -0.80600
O2141       O  0.97614605  0.05250584  0.56903989    -0.83300
O2142       O  0.91887726  0.40596119  0.98871912    -0.79000
O2143       O  0.57238090  0.49482248  0.93232850    -0.79100
O2144       O  0.54155121  0.07733367  0.97761250    -0.78700
O2145       O  0.88902779  0.48970928  0.53627009    -0.82200
O2146       O  0.97713473  0.44285476  0.57582405    -0.81600
O2147       O  0.56864767  0.48315455  0.53966444    -0.80000
Eu2148     Eu  0.92574038  0.46031348  0.50510285     2.39800
Eu2149     Eu  0.53459875  0.02239182  0.96477714     2.39600
Eu2150     Eu  0.99879260  0.43991141  0.95438099     2.38400
Eu2151     Eu  0.96187214  0.04467204  0.51462839     2.39900
Eu2152     Eu  0.51053994  0.47408046  0.53932191     2.39800
O2153       O  0.51447208  0.02553142  0.51755454    -0.94400
O2154       O  0.97810697  0.44209631  0.00692257    -0.93300
C2155       C  0.94845173  0.43129358  0.57834693     1.00800
C2156       C  0.58963007  0.99676521  0.52089427     0.99500
C2157       C  0.93433761  0.38652387  0.97160722     0.98900
C2158       C  0.88629465  0.01794321  0.54567978     1.00900
C2159       C  0.52533573  0.09809240  0.99207954     0.99800
C2160       C  0.57493320  0.46688300  0.92237988     0.98700
C2161       C  0.53813728  0.40078982  0.51464046     0.98700
C2162       C  0.99173363  0.03810294  0.59050022     1.01300
H2163       H  0.55120209  0.46230232  0.98659159     0.28700
O2164       O  0.53047353  0.47159103  0.98665350    -1.06500
H2165       H  0.94935572  0.49420394  0.55743293     0.30800
O2166       O  0.95858030  0.49328464  0.53626961    -1.09100
C2167       C  0.71034895  0.04621043  0.61930657     0.84900
C2168       C  0.69332082  0.03622565  0.58951449    -0.55300
C2169       C  0.70538021  0.01071422  0.57562524     0.07900
C2170       C  0.73381064  0.49698705  0.59340817     0.18800
C2171       C  0.70860506  0.01661207  0.64130361    -0.56000
C2172       C  0.72095004  0.49053729  0.62785502     0.08000
C2173       C  0.74572761  0.05006793  0.60951513    -0.55500
C2174       C  0.75806444  0.02463736  0.59565999     0.08500
H2175       H  0.67184297  0.04729977  0.58119413     0.13100
H2176       H  0.74339634  0.47668373  0.58086137    -0.01200
H2177       H  0.69879877  0.01621969  0.66531045     0.13400
H2178       H  0.75988839  0.07133912  0.61325670     0.13200
O2179       O  0.64885765  0.20235344  0.76460067    -0.81700
O2180       O  0.72567738  0.28800679  0.62092081    -0.83200
O2181       O  0.63201099  0.27292384  0.69157452    -0.80200
O2182       O  0.67784871  0.18999715  0.66379105    -0.78600
O2183       O  0.72618446  0.16860687  0.67433421    -0.80400
O2184       O  0.64265758  0.30888152  0.72974567    -0.81400
O2185       O  0.68185093  0.25592079  0.63123264    -0.82700
O2186       O  0.63728901  0.21176547  0.71226809    -0.83000
Eu2187     Eu  0.67969043  0.24161751  0.68782838     2.39200
O2188       O  0.73244432  0.23939401  0.66987818    -0.90500
O2189       O  0.67725907  0.25794587  0.74084500    -0.94100
C2190       C  0.63053476  0.20063661  0.74002163     1.00600
C2191       C  0.70050394  0.27238194  0.61226512     1.00400
C2192       C  0.62389012  0.29442215  0.71076262     1.00400
C2193       C  0.69773855  0.16762396  0.66329383     0.98200
H2194       H  0.68784127  0.30676338  0.67615724     0.28000
O2195       O  0.69990586  0.29317896  0.68962411    -1.02900
H2196       H  0.69588911  0.18693524  0.72269820     0.28000
O2197       O  0.70622763  0.20743293  0.72237879    -1.05400
O2198       O  0.80699593  0.31575829  0.67760057    -0.82600
O2199       O  0.73495965  0.23068728  0.82535351    -0.82200
O2200       O  0.70602942  0.35710452  0.70970848    -0.80600
O2201       O  0.78639748  0.21107841  0.64970758    -0.83900
O2202       O  0.75162649  0.15615859  0.73877811    -0.81800
O2203       O  0.67032051  0.30354154  0.79704091    -0.80400
O2204       O  0.77938712  0.32606918  0.78207660    -0.82000
O2205       O  0.82844333  0.23686081  0.75279592    -0.83900
O2206       O  0.72882529  0.34430465  0.77538720    -0.80600
O2207       O  0.81452400  0.19831313  0.71838340    -0.83300
O2208       O  0.74019932  0.34576649  0.66864815    -0.79000
O2209       O  0.67115411  0.25193248  0.81268185    -0.79100
O2210       O  0.71890183  0.16931212  0.78038679    -0.78700
O2211       O  0.78642100  0.26302999  0.63553585    -0.82200
O2212       O  0.82217691  0.30354718  0.72829546    -0.81600
O2213       O  0.78044981  0.26026729  0.81353165    -0.80000
Eu2214     Eu  0.75369374  0.29079137  0.67229965     2.39800
Eu2215     Eu  0.70436373  0.22431143  0.77502245     2.39600
Eu2216     Eu  0.69876813  0.30865589  0.74340542     2.38400
Eu2217     Eu  0.75932979  0.20472437  0.70373805     2.39900
Eu2218     Eu  0.78167919  0.27314376  0.75716039     2.39800
O2219       O  0.75833873  0.22220765  0.75681803    -0.94400
O2220       O  0.75241242  0.30719768  0.72510461    -0.93300
C2221       C  0.82690305  0.31599357  0.70056231     1.00800
C2222       C  0.76103067  0.24565414  0.83326305     0.99500
C2223       C  0.72276321  0.36479443  0.68424845     0.98900
C2224       C  0.79365872  0.23462914  0.63052064     1.00900
C2225       C  0.73579185  0.14942519  0.76519194     0.99800
C2226       C  0.66346476  0.28043346  0.81689230     0.98700
C2227       C  0.75737627  0.34659041  0.78588844     0.98700
C2228       C  0.83475019  0.21226634  0.73625996     1.01300
H2229       H  0.72762731  0.28304173  0.79627979     0.28700
O2230       O  0.72811566  0.27477952  0.77516288    -1.06500
H2231       H  0.80359687  0.25507898  0.69655032     0.30800
O2232       O  0.78188332  0.25577201  0.70466521    -1.09100
C2233       C  0.58563446  0.22425198  0.98226940     0.84900
C2234       C  0.61744419  0.22446723  0.50007722    -0.55300
C2235       C  0.63532609  0.25171113  0.49705632     0.07900
C2236       C  0.62020940  0.27591306  0.97492771     0.18800
C2237       C  0.56877404  0.25370379  0.99434731    -0.56000
C2238       C  0.58705286  0.28098705  0.99083495     0.08000
C2239       C  0.59492668  0.23264567  0.94755544    -0.55500
C2240       C  0.61297048  0.25957500  0.94330388     0.08500
H2241       H  0.62319592  0.20585796  0.51675899     0.13100
H2242       H  0.63603242  0.29690385  0.97148453    -0.01200
H2243       H  0.54484073  0.25322765  0.00469998     0.13400
H2244       H  0.58796002  0.21806460  0.92790431     0.13200
C2245       C  0.98080387  0.39482950  0.75816262     0.84900
C2246       C  0.00968410  0.37380469  0.75428660    -0.55300
C2247       C  0.00725324  0.35367955  0.72988685     0.07900
C2248       C  0.97656910  0.35623922  0.71127045     0.18800
C2249       C  0.97732156  0.41102053  0.72541198    -0.56000
C2250       C  0.97456416  0.39058192  0.70085601     0.08000
C2251       C  0.95197498  0.37155716  0.76091486    -0.55500
C2252       C  0.94904589  0.35245331  0.73547971     0.08500
H2253       H  0.53031725  0.37373378  0.76934690     0.13100
H2254       H  0.97483163  0.33895810  0.69209956    -0.01200
H2255       H  0.97504552  0.43609762  0.72244509     0.13400
H2256       H  0.93285724  0.37345292  0.77863415     0.13200
C2257       C  0.87306659  0.20379364  0.95843791     0.84900
C2258       C  0.84477016  0.21024014  0.93751216    -0.55300
C2259       C  0.82724640  0.23482259  0.94630106     0.07900
C2260       C  0.84056541  0.25208512  0.97530157     0.18800
C2261       C  0.89309041  0.23474662  0.95739930    -0.56000
C2262       C  0.87615075  0.26053237  0.96595211     0.08000
C2263       C  0.85935582  0.20130290  0.99239110    -0.55500
C2264       C  0.84243364  0.22626387  0.00158331     0.08500
H2265       H  0.83923357  0.19651489  0.91676499     0.13100
H2266       H  0.82568730  0.27193338  0.98214966    -0.01200
H2267       H  0.91826753  0.23616184  0.95087998     0.13400
H2268       H  0.86348539  0.18147342  0.50817122     0.13200
C2269       C  0.73417022  0.02515702  0.83075298     0.84900
C2270       C  0.75522357  0.02724614  0.86026337    -0.55300
C2271       C  0.75424845  0.50109662  0.87990102     0.07900
C2272       C  0.73073293  0.47552151  0.86833874     0.18800
C2273       C  0.74489809  0.49502753  0.81470825    -0.56000
C2274       C  0.74318302  0.46877315  0.83440352     0.08000
C2275       C  0.70029131  0.01651920  0.84380950    -0.55500
C2276       C  0.69806541  0.49073396  0.86346940     0.08500
H2277       H  0.77181120  0.04689167  0.86326814     0.13100
H2278       H  0.72887082  0.45504164  0.88477871    -0.01200
H2279       H  0.75262482  0.49411701  0.79003637     0.13400
H2280       H  0.67955237  0.03000067  0.83785867     0.13200
C2281       C  0.66654119  0.29139665  0.87455038    -0.14900
C2282       C  0.64742441  0.28567579  0.84804408     0.07300
C2283       C  0.61571924  0.27463395  0.85342480    -0.14900
C2284       C  0.60401970  0.26779912  0.88443997    -0.14900
C2285       C  0.62384738  0.27151883  0.91089028     0.07300
C2286       C  0.65486048  0.28454384  0.90562619    -0.14900
H2287       H  0.69146041  0.29869356  0.87106077     0.11200
H2288       H  0.60074758  0.26910966  0.83347985     0.11200
H2289       H  0.57981620  0.25827874  0.88760648     0.11200
H2290       H  0.67087855  0.28740384  0.92530423     0.11200
C2291       C  0.69562708  0.24313533  0.56237947    -0.14900
C2292       C  0.69236868  0.27138624  0.57832511     0.07300
C2293       C  0.67486407  0.29518491  0.56418603    -0.14900
C2294       C  0.65870245  0.28980579  0.53581480    -0.14900
C2295       C  0.65942961  0.26036967  0.52140050     0.07300
C2296       C  0.67945949  0.23771225  0.53413441    -0.14900
H2297       H  0.70884626  0.22436471  0.57304668     0.11200
H2298       H  0.67158431  0.31694526  0.57634054     0.11200
H2299       H  0.64345851  0.30780850  0.52685192     0.11200
H2300       H  0.68089988  0.21500738  0.52342552     0.11200
C2301       C  0.78999312  0.27207509  0.87706269    -0.14900
C2302       C  0.77007059  0.24707767  0.86709054     0.07300
C2303       C  0.76231167  0.22250088  0.88866087    -0.14900
C2304       C  0.77760742  0.22095122  0.91790782    -0.14900
C2305       C  0.80067721  0.24399150  0.92593623     0.07300
C2306       C  0.80512131  0.27056573  0.90631613    -0.14900
H2307       H  0.79577008  0.29181534  0.86121496     0.11200
H2308       H  0.74683400  0.20316369  0.88180964     0.11200
H2309       H  0.77420098  0.20001505  0.93266738     0.11200
H2310       H  0.82308840  0.28832087  0.91179130     0.11200
C2311       C  0.80487891  0.20271105  0.58216430    -0.14900
C2312       C  0.80977724  0.23012567  0.59926306     0.07300
C2313       C  0.82573717  0.25600237  0.58389970    -0.14900
C2314       C  0.83532810  0.25501769  0.55197952    -0.14900
C2315       C  0.82973573  0.22800554  0.53467771     0.07300
C2316       C  0.81488012  0.20164148  0.55015473    -0.14900
H2317       H  0.79217992  0.18266943  0.59306228     0.11200
H2318       H  0.83006963  0.27752325  0.59641171     0.11200
H2319       H  0.84763680  0.27520233  0.54100698     0.11200
H2320       H  0.81054882  0.18035055  0.53727703     0.11200
C2321       C  0.77391312  0.43160276  0.79941048    -0.14900
C2322       C  0.75187033  0.43660497  0.82454705     0.07300
C2323       C  0.73724997  0.41029273  0.84012971    -0.14900
C2324       C  0.74315551  0.38016604  0.83002954    -0.14900
C2325       C  0.76334437  0.37530948  0.80367868     0.07300
C2326       C  0.77940020  0.40119902  0.78890702    -0.14900
H2327       H  0.78605040  0.45115462  0.78709483     0.11200
H2328       H  0.71942577  0.41267687  0.85883998     0.11200
H2329       H  0.72951054  0.36069190  0.84098475     0.11200
H2330       H  0.79419316  0.39813624  0.76779880     0.11200
C2331       C  0.74687057  0.09047058  0.76413940    -0.14900
C2332       C  0.73641955  0.11706411  0.78022754     0.07300
C2333       C  0.72524823  0.11263075  0.81189207    -0.14900
C2334       C  0.72466346  0.08321723  0.82702980    -0.14900
C2335       C  0.73509461  0.05647471  0.81144389     0.07300
C2336       C  0.74614520  0.06055362  0.77947953    -0.14900
H2337       H  0.75535687  0.09271196  0.73967273     0.11200
H2338       H  0.71698571  0.13215121  0.82545094     0.11200
H2339       H  0.71603563  0.08135053  0.85148382     0.11200
H2340       H  0.75442516  0.04096948  0.76617029     0.11200
C2341       C  0.88364206  0.30906757  0.69353679    -0.14900
C2342       C  0.85854106  0.32995805  0.69615161     0.07300
C2343       C  0.86394439  0.35917937  0.70952249    -0.14900
C2344       C  0.89326302  0.36621407  0.72305778    -0.14900
C2345       C  0.91739643  0.34402006  0.72330063     0.07300
C2346       C  0.91296871  0.31603407  0.70717754    -0.14900
H2347       H  0.87939324  0.28597768  0.68411058     0.11200
H2348       H  0.84450218  0.37515728  0.71241141     0.11200
H2349       H  0.89687257  0.38876725  0.73382059     0.11200
H2350       H  0.93177945  0.29917885  0.70614884     0.11200
C2351       C  0.57546764  0.30115342  0.74308688    -0.14900
C2352       C  0.59042494  0.30244697  0.71298649     0.07300
C2353       C  0.57478128  0.31531187  0.68693875    -0.14900
C2354       C  0.54564907  0.32993335  0.69182811    -0.14900
C2355       C  0.53245719  0.33155660  0.72271809     0.07300
C2356       C  0.54651103  0.31548620  0.74789788    -0.14900
H2357       H  0.58721658  0.29073799  0.76326481     0.11200
H2358       H  0.58623954  0.31626626  0.66357608     0.11200
H2359       H  0.53496772  0.34216196  0.67214154     0.11200
H2360       H  0.53618913  0.31590007  0.77172691     0.11200
C2361       C  0.70039581  0.44975490  0.66913800    -0.14900
C2362       C  0.72170749  0.45885839  0.64387348     0.07300
C2363       C  0.74365828  0.43691590  0.63321421    -0.14900
C2364       C  0.74397250  0.40688423  0.64660870    -0.14900
C2365       C  0.72241079  0.39750923  0.67137709     0.07300
C2366       C  0.70082025  0.41946140  0.68278886    -0.14900
H2367       H  0.68282651  0.46566209  0.67796519     0.11200
H2368       H  0.76102078  0.44259282  0.61450756     0.11200
H2369       H  0.76133508  0.39093853  0.63732705     0.11200
H2370       H  0.68387715  0.41308117  0.70184333     0.11200
C2371       C  0.69950642  0.10245686  0.60858915    -0.14900
C2372       C  0.69773333  0.07692964  0.63046821     0.07300
C2373       C  0.68723742  0.08196063  0.66180787    -0.14900
C2374       C  0.68256058  0.11241534  0.67176497    -0.14900
C2375       C  0.68794275  0.13781766  0.65047387     0.07300
C2376       C  0.69470622  0.13266785  0.61853746    -0.14900
H2377       H  0.70725433  0.09924407  0.58416357     0.11200
H2378       H  0.68501185  0.06317146  0.67929145     0.11200
H2379       H  0.67784286  0.11639841  0.69676255     0.11200
H2380       H  0.69963197  0.15213789  0.60208723     0.11200
C2381       C  0.95979670  0.38772708  0.61299389    -0.14900
C2382       C  0.94206521  0.41449490  0.60809604     0.07300
C2383       C  0.93190189  0.43172641  0.63418702    -0.14900
C2384       C  0.94210192  0.42390029  0.66462621    -0.14900
C2385       C  0.96283655  0.39897074  0.66904236     0.11100
C2386       C  0.97059616  0.38034535  0.64309322    -0.14900
H2387       H  0.96873668  0.37486518  0.59290474     0.11200
H2388       H  0.91890432  0.45300232  0.63059695     0.11200
H2389       H  0.93463156  0.43795085  0.68437711     0.11200
H2390       H  0.98661904  0.36112150  0.64544131     0.11200
C2391       C  0.95046780  0.44757236  0.82347325    -0.14900
C2392       C  0.97621202  0.44741428  0.84423072     0.07300
C2393       C  0.00565910  0.43607960  0.83376899    -0.14900
C2394       C  0.00836144  0.42156781  0.80468133    -0.14900
C2395       C  0.98135041  0.41742729  0.78562186     0.07300
C2396       C  0.95313784  0.43286431  0.79417956    -0.14900
H2397       H  0.92777794  0.45707968  0.83073126     0.11200
H2398       H  0.52641350  0.43732546  0.84876421     0.11200
H2399       H  0.53153695  0.41302396  0.79819126     0.11200
H2400       H  0.93235818  0.43147154  0.77926188     0.11200
C2401       C  0.60834640  0.47174650  0.87289781    -0.14900
C2402       C  0.60543776  0.46189304  0.90488224     0.07300
C2403       C  0.63361048  0.45840397  0.92221960    -0.14900
C2404       C  0.66389408  0.46599462  0.90831527    -0.14900
C2405       C  0.66660567  0.47796110  0.87695451     0.07300
C2406       C  0.63851365  0.47958141  0.85908071    -0.14900
H2407       H  0.58718422  0.97527887  0.85911171     0.11200
H2408       H  0.63199903  0.45218236  0.94731256     0.11200
H2409       H  0.68491330  0.46462703  0.92282961     0.11200
H2410       H  0.63987368  0.98752040  0.83443139     0.11200
C2411       C  0.81838093  0.46019890  0.92777419    -0.14900
C2412       C  0.83648174  0.48588471  0.93838623     0.07300
C2413       C  0.82447108  0.51594348  0.93428126    -0.14900
C2414       C  0.79616553  0.52058948  0.91787915    -0.14900
C2415       C  0.77952121  0.49533858  0.90419944     0.07300
C2416       C  0.79025407  0.46487492  0.91067419    -0.14900
H2417       H  0.82725304  0.43680189  0.93049670     0.11200
H2418       H  0.83792987  0.53612806  0.94250517     0.11200
H2419       H  0.78832829  0.54426768  0.91455267     0.11200
H2420       H  0.77849019  0.44466479  0.90062470     0.11200
C2421       C  0.64812266  0.51092130  0.51254306    -0.14900
C2422       C  0.62365734  0.99287075  0.52852218     0.07300
C2423       C  0.63209731  0.97190433  0.55294993    -0.14900
C2424       C  0.66312095  0.97264464  0.56450117    -0.14900
C2425       C  0.68563212  0.99486081  0.55225641     0.07300
C2426       C  0.67892067  0.01170978  0.52434875    -0.14900
H2427       H  0.64264584  0.52639923  0.99284047     0.11200
H2428       H  0.61421162  0.95669279  0.56484460     0.11200
H2429       H  0.66790268  0.95947973  0.58608150     0.11200
H2430       H  0.69616328  0.52947301  0.51497884     0.11200
C2431       C  0.83757508  0.04931830  0.55599089    -0.14900
C2432       C  0.85588074  0.02319481  0.56276466     0.07300
C2433       C  0.84246815  0.49870903  0.58190510    -0.14900
C2434       C  0.81080794  0.49928357  0.59277682    -0.14900
C2435       C  0.79179015  0.02445560  0.58452275     0.07300
C2436       C  0.80567758  0.04999167  0.56696268    -0.14900
H2437       H  0.84730108  0.06827271  0.54090442     0.11200
H2438       H  0.85632872  0.47844084  0.58768795     0.11200
H2439       H  0.80118918  0.48009600  0.60749210     0.11200
H2440       H  0.79150707  0.06993165  0.56083413     0.11200
C2441       C  0.87981234  0.11701953  0.94675349    -0.14900
C2442       C  0.91273308  0.11384270  0.94352183     0.07300
C2443       C  0.93320305  0.14038544  0.94041743    -0.14900
C2444       C  0.92084341  0.17021743  0.94290344    -0.14900
C2445       C  0.88795090  0.17342298  0.94932020     0.07300
C2446       C  0.86753679  0.14651581  0.94975440    -0.14900
H2447       H  0.86394447  0.09663135  0.94990085     0.11200
H2448       H  0.95891952  0.13789584  0.93844978     0.11200
H2449       H  0.93739613  0.19007305  0.94194181     0.11200
H2450       H  0.84205692  0.14824471  0.95452937     0.11200
C2451       C  0.89020523  0.34677801  0.98503568    -0.14900
C2452       C  0.91927478  0.35457844  0.96873453     0.07300
C2453       C  0.93355433  0.33145045  0.95047189    -0.14900
C2454       C  0.91945374  0.30128604  0.94909959    -0.14900
C2455       C  0.89078047  0.29318365  0.96622605     0.07300
C2456       C  0.87629667  0.31668374  0.98388072    -0.14900
H2457       H  0.87822252  0.36386489  0.99928086     0.11200
H2458       H  0.95571892  0.33657931  0.93729502     0.11200
H2459       H  0.93116540  0.28451001  0.93434677     0.11200
H2460       H  0.85446879  0.31203346  0.99756542     0.11200
C2461       C  0.52356739  0.15643096  0.00288880    -0.14900
C2462       C  0.53953354  0.13065398  0.99062509     0.07300
C2463       C  0.56969092  0.13620427  0.97559137    -0.14900
C2464       C  0.58364627  0.16619170  0.97328084    -0.14900
C2465       C  0.56805322  0.19216624  0.98550474     0.07300
C2466       C  0.53761330  0.18682588  0.00038320    -0.14900
H2467       H  0.00020678  0.15315125  0.01436231     0.11200
H2468       H  0.58289285  0.11725771  0.96553050     0.11200
H2469       H  0.60703735  0.16916367  0.96177499     0.11200
H2470       H  0.52449090  0.20572122  0.01038246     0.11200
C2471       C  0.54180218  0.34535239  0.03352621    -0.14900
C2472       C  0.55639954  0.37232591  0.51939179     0.07300
C2473       C  0.58280998  0.36909602  0.49878768    -0.14900
C2474       C  0.59255235  0.33969868  0.98988074    -0.14900
C2475       C  0.57711120  0.31231081  0.00236164     0.07300
C2476       C  0.55239893  0.31556385  0.02545964    -0.14900
H2477       H  0.52073032  0.34719793  0.04876770     0.11200
H2478       H  0.59369784  0.38950435  0.48668882     0.11200
H2479       H  0.61090214  0.33905755  0.97150302     0.11200
H2480       H  0.54030024  0.29525306  0.03638715     0.11200
C2481       C  0.47428810  0.09835551  0.65409463    -0.14900
C2482       C  0.98525133  0.08435856  0.68201840     0.07300
C2483       C  0.00059684  0.05533839  0.67930078    -0.14900
C2484       C  0.00359638  0.04033966  0.64988836    -0.14900
C2485       C  0.99173057  0.05404843  0.62213263     0.07300
C2486       C  0.47753296  0.08360151  0.62481760    -0.14900
H2487       H  0.46241089  0.12044580  0.65478698     0.11200
H2488       H  0.01057907  0.04400902  0.69987058     0.11200
H2489       H  0.01481068  0.01789294  0.64900256     0.11200
H2490       H  0.46815251  0.09542147  0.60417884     0.11200
C2491       C  0.00429099  0.05847626  0.80522215    -0.14900
C2492       C  0.98951556  0.08758990  0.80327103     0.07300
C2493       C  0.48876257  0.10624379  0.83045724    -0.14900
C2494       C  0.50120239  0.09569209  0.85891799    -0.14900
C2495       C  0.01398070  0.06597918  0.86110119     0.07300
C2496       C  0.01604347  0.04766819  0.83401916    -0.14900
H2497       H  0.00725755  0.04392546  0.78482675     0.11200
H2498       H  0.47910195  0.12943363  0.82942932     0.11200
H2499       H  0.49821915  0.10955653  0.87998184     0.11200
H2500       H  0.02459055  0.02404058  0.83575003     0.11200
C2501       C  0.90565817  0.16349679  0.71170436    -0.14900
C2502       C  0.92345429  0.16240821  0.73947086     0.07300
C2503       C  0.91383543  0.18087913  0.76523912    -0.14900
C2504       C  0.88613658  0.19875805  0.76383566    -0.14900
C2505       C  0.86706822  0.19810849  0.73682041     0.07300
C2506       C  0.87771099  0.18086505  0.71049282    -0.14900
H2507       H  0.91239025  0.14960344  0.69155016     0.11200
H2508       H  0.92736642  0.18081723  0.78689802     0.11200
H2509       H  0.87879228  0.21173120  0.78442619     0.11200
H2510       H  0.86382115  0.18006767  0.68907060     0.11200
C2511       C  0.56111352  0.15165726  0.71429093    -0.14900
C2512       C  0.53562777  0.16489558  0.73075537     0.07300
C2513       C  0.54188921  0.18973525  0.75134814    -0.14900
C2514       C  0.57338115  0.19994291  0.75673663    -0.14900
C2515       C  0.59891179  0.18529875  0.74169332     0.07300
C2516       C  0.59247926  0.16171851  0.71977937    -0.14900
H2517       H  0.55692326  0.13169911  0.69934767     0.11200
H2518       H  0.52252930  0.19945376  0.76515197     0.11200
H2519       H  0.57779717  0.21942984  0.77222222     0.11200
H2520       H  0.61191618  0.15126354  0.70669188     0.11200
C2521       C  0.98321279  0.60340796  0.27158429     0.84900
C2522       C  0.95281484  0.62254210  0.27019266    -0.55300
C2523       C  0.95030822  0.64023695  0.24289892     0.07900
C2524       C  0.47883658  0.63613065  0.21879111     0.18800
C2525       C  0.98230644  0.58340849  0.24168434    -0.56000
C2526       C  0.98119379  0.60010814  0.21360353     0.08000
C2527       C  0.51048359  0.62686693  0.26546772    -0.55500
C2528       C  0.50844614  0.64421895  0.23860733     0.08500
H2529       H  0.93529499  0.62285212  0.28963930     0.13100
H2530       H  0.47770034  0.65070891  0.19676985    -0.01200
H2531       H  0.98248492  0.55815756  0.24249913     0.13400
H2532       H  0.53078225  0.62925216  0.28117409     0.13200
O2533       O  0.53178351  0.54658072  0.41096237    -0.81700
O2534       O  0.87644416  0.96687502  0.47367477    -0.83200
O2535       O  0.95497450  0.97960356  0.38473335    -0.80200
O2536       O  0.92746944  0.56253210  0.43202381    -0.78600
O2537       O  0.93518492  0.58228616  0.48154582    -0.80400
O2538       O  0.98845088  0.94026976  0.39780803    -0.81400
O2539       O  0.89143859  0.99870534  0.43132719    -0.82700
O2540       O  0.98012636  0.53898968  0.39475050    -0.83000
Eu2541     Eu  0.94875587  0.50979478  0.43313629     2.39200
O2542       O  0.92795125  0.51188873  0.48478495    -0.90500
O2543       O  0.00097902  0.99098760  0.43408569    -0.94100
C2544       C  0.00897475  0.54934145  0.39093977     1.00600
C2545       C  0.87025767  0.98320047  0.44841285     1.00400
C2546       C  0.97256689  0.95638044  0.37770749     1.00400
C2547       C  0.92603005  0.58426802  0.45264121     0.98200
H2548       H  0.93246819  0.94557850  0.43949683     0.28000
O2549       O  0.94604925  0.95822191  0.45267247    -1.02900
H2550       H  0.98499577  0.56232289  0.45321813     0.28000
O2551       O  0.98298746  0.54174268  0.46295960    -1.05400
O2552       O  0.92654839  0.93379381  0.05748127    -0.82600
O2553       O  0.58314903  0.51249500  0.49532743    -0.82200
O2554       O  0.96175023  0.89325339  0.45759364    -0.80600
O2555       O  0.90711213  0.54052579  0.04011808    -0.83900
O2556       O  0.99815163  0.59196549  0.00687165    -0.81800
O2557       O  0.55349961  0.94459716  0.42696365    -0.80400
O2558       O  0.53486821  0.92103494  0.03683919    -0.82000
O2559       O  0.50576976  0.51155040  0.08586437    -0.83900
O2560       O  0.52826579  0.90376428  0.48602057    -0.80600
O2561       O  0.97598996  0.55236292  0.06900878    -0.83300
O2562       O  0.91890872  0.90608466  0.48888462    -0.79000
O2563       O  0.57250289  0.99492531  0.43242046    -0.79100
O2564       O  0.54159379  0.57708553  0.47763037    -0.78700
O2565       O  0.88920565  0.98977404  0.03648481    -0.82200
O2566       O  0.97718936  0.94300173  0.07591849    -0.81600
O2567       O  0.56853523  0.98338800  0.03989374    -0.80000
Eu2568     Eu  0.92582836  0.96045672  0.00513550     2.39800
Eu2569     Eu  0.53453684  0.52220804  0.46470554     2.39600
Eu2570     Eu  0.99889721  0.94002218  0.45443058     2.38400
Eu2571     Eu  0.96183483  0.54450721  0.01454470     2.39900
Eu2572     Eu  0.51057021  0.97415385  0.03935194     2.39800
O2573       O  0.51445170  0.52542426  0.01748766    -0.94400
O2574       O  0.97815797  0.94216215  0.50696180    -0.93300
C2575       C  0.94853607  0.93135323  0.07834842     1.00800
C2576       C  0.58976143  0.49657234  0.02067246     0.99500
C2577       C  0.93441290  0.88665127  0.47180603     0.98900
C2578       C  0.88615396  0.51788539  0.04540053     1.00900
C2579       C  0.52544181  0.59781279  0.49220389     0.99800
C2580       C  0.57499665  0.96701441  0.42234340     0.98700
C2581       C  0.53852001  0.90088446  0.01443394     0.98700
C2582       C  0.99160656  0.53800457  0.09048158     1.01300
H2583       H  0.55125902  0.96247898  0.48663826     0.28700
O2584       O  0.53051991  0.97174604  0.48669673    -1.06500
H2585       H  0.94943864  0.99433498  0.05745888     0.30800
O2586       O  0.95865152  0.99343146  0.03628986    -1.09100
C2587       C  0.71053380  0.54629805  0.11966099     0.84900
C2588       C  0.69352016  0.53639549  0.08982132    -0.55300
C2589       C  0.70550833  0.51085959  0.07590943     0.07900
C2590       C  0.73374917  0.99695989  0.09307362     0.18800
C2591       C  0.70863839  0.51668280  0.14163150    -0.56000
C2592       C  0.72096065  0.99047672  0.12754639     0.08000
C2593       C  0.74593938  0.55003861  0.10992941    -0.55500
C2594       C  0.75820278  0.52458910  0.09605363     0.08500
H2595       H  0.67210305  0.54755990  0.08147546     0.13100
H2596       H  0.74336492  0.97674223  0.08043078    -0.01200
H2597       H  0.69880354  0.51627098  0.16563645     0.13400
H2598       H  0.76015982  0.57127880  0.11364813     0.13200
O2599       O  0.64916779  0.70211955  0.26483117    -0.81700
O2600       O  0.72548701  0.78779174  0.12116473    -0.83200
O2601       O  0.63204189  0.77323012  0.19207131    -0.80200
O2602       O  0.67797413  0.69015382  0.16414167    -0.78600
O2603       O  0.72645476  0.66892401  0.17445342    -0.80400
O2604       O  0.64282740  0.80946740  0.22994727    -0.81400
O2605       O  0.68160611  0.75583929  0.13168859    -0.82700
O2606       O  0.63755659  0.71147453  0.21251947    -0.83000
Eu2607     Eu  0.67967164  0.74175629  0.18825460     2.39200
O2608       O  0.73241010  0.73948008  0.17026086    -0.90500
O2609       O  0.67718968  0.75816651  0.24124704    -0.94100
C2610       C  0.63087579  0.70027397  0.24024703     1.00600
C2611       C  0.70026242  0.77217624  0.11263626     1.00400
C2612       C  0.62400181  0.79494216  0.21105288     1.00400
C2613       C  0.69797861  0.66787283  0.16349893     0.98200
H2614       H  0.68785744  0.80683177  0.17648602     0.28000
O2615       O  0.69996008  0.79327239  0.18994179    -1.02900
H2616       H  0.69611990  0.68702481  0.22288945     0.28000
O2617       O  0.70642543  0.70753681  0.22255592    -1.05400
O2618       O  0.80696151  0.81590644  0.17734586    -0.82600
O2619       O  0.73514383  0.73037733  0.32531536    -0.82200
O2620       O  0.70618639  0.85716979  0.20970743    -0.80600
O2621       O  0.78653210  0.71104319  0.14986689    -0.83900
O2622       O  0.75173967  0.65637051  0.23913431    -0.81800
O2623       O  0.67063356  0.80347813  0.29739632    -0.80400
O2624       O  0.77988575  0.82610958  0.28229124    -0.82000
O2625       O  0.82889302  0.73742070  0.25293046    -0.83900
O2626       O  0.72936851  0.84445316  0.27554894    -0.80600
O2627       O  0.81486925  0.69874584  0.21871044    -0.83300
O2628       O  0.74008409  0.84568959  0.16847379    -0.79000
O2629       O  0.67152693  0.75183245  0.31290498    -0.79100
O2630       O  0.71869350  0.66941209  0.28052360    -0.78700
O2631       O  0.78616115  0.76294038  0.13559343    -0.82200
O2632       O  0.82227096  0.80379415  0.22801803    -0.81600
O2633       O  0.78053778  0.76013375  0.31354912    -0.80000
Eu2634     Eu  0.75367332  0.79083052  0.17242388     2.39800
Eu2635     Eu  0.70455275  0.72441714  0.27509532     2.39600
Eu2636     Eu  0.69895325  0.80885443  0.24367883     2.38400
Eu2637     Eu  0.75957409  0.70489333  0.20398367     2.39900
Eu2638     Eu  0.78193345  0.77335592  0.25720907     2.39800
O2639       O  0.75858907  0.72240907  0.25700849    -0.94400
O2640       O  0.75254797  0.80735897  0.22519890    -0.93300
C2641       C  0.82694080  0.81618083  0.20024139     1.00800
C2642       C  0.76116665  0.74537497  0.33323171     0.99500
C2643       C  0.72274113  0.86476156  0.18409989     0.98900
C2644       C  0.79354835  0.73458540  0.13058547     1.00900
C2645       C  0.73570312  0.64957771  0.26542587     0.99800
C2646       C  0.66386432  0.78030757  0.31720661     0.98700
C2647       C  0.75792521  0.84666053  0.28608485     0.98700
C2648       C  0.83516867  0.71279628  0.23645388     1.01300
H2649       H  0.72791975  0.78309275  0.29640499     0.28700
O2650       O  0.72836653  0.77488838  0.27526312    -1.06500
H2651       H  0.80377063  0.75527115  0.19654337     0.30800
O2652       O  0.78208123  0.75594802  0.20472892    -1.09100
C2653       C  0.58568014  0.72393304  0.48236001     0.84900
C2654       C  0.61735282  0.72413155  0.00035643    -0.55300
C2655       C  0.63529333  0.75132973  0.99737839     0.07900
C2656       C  0.62035898  0.77553478  0.47512340     0.18800
C2657       C  0.56878048  0.75344671  0.49427669    -0.56000
C2658       C  0.58711255  0.78070889  0.49080395     0.08000
C2659       C  0.59520452  0.73223077  0.44769302    -0.55500
C2660       C  0.61330947  0.75912198  0.44351443     0.08500
H2661       H  0.62297394  0.70553019  0.01710012     0.13100
H2662       H  0.63622973  0.79650204  0.47171579    -0.01200
H2663       H  0.54479706  0.75302635  0.50451060     0.13400
H2664       H  0.58834815  0.71762726  0.42801974     0.13200
C2665       C  0.98055878  0.89508385  0.25816156     0.84900
C2666       C  0.00941799  0.87399270  0.25434458    -0.55300
C2667       C  0.00700512  0.85382928  0.22997811     0.07900
C2668       C  0.97633658  0.85638100  0.21136012     0.18800
C2669       C  0.97711921  0.91120778  0.22537408    -0.56000
C2670       C  0.97436699  0.89070119  0.20087584     0.08000
C2671       C  0.95167459  0.87187711  0.26092608    -0.55500
C2672       C  0.94879559  0.85268366  0.23555763     0.08500
H2673       H  0.53006166  0.87392814  0.26938555     0.13100
H2674       H  0.97458309  0.83907422  0.19220828    -0.01200
H2675       H  0.97484137  0.93627828  0.22233218     0.13400
H2676       H  0.93249196  0.87389378  0.27855586     0.13200
C2677       C  0.87309604  0.70384225  0.45851158     0.84900
C2678       C  0.84476206  0.71013079  0.43759535    -0.55300
C2679       C  0.82720285  0.73472174  0.44627699     0.07900
C2680       C  0.84051922  0.75214401  0.47517629     0.18800
C2681       C  0.89307530  0.73479926  0.45733981    -0.56000
C2682       C  0.87613834  0.76062903  0.46581209     0.08000
C2683       C  0.85943689  0.70149988  0.49249550    -0.55500
C2684       C  0.84240021  0.72642754  0.50156380     0.08500
H2685       H  0.83921041  0.69626199  0.41695041     0.13100
H2686       H  0.82552965  0.77192258  0.48194626    -0.01200
H2687       H  0.91826439  0.73609652  0.45091281     0.13400
H2688       H  0.86360671  0.68175798  0.00838366     0.13200
C2689       C  0.73409456  0.52531760  0.33094026     0.84900
C2690       C  0.75518402  0.52724999  0.36044331    -0.55300
C2691       C  0.75433218  0.00119138  0.37985861     0.07900
C2692       C  0.73089196  0.97551084  0.36836653     0.18800
C2693       C  0.74509453  0.99485082  0.31467796    -0.56000
C2694       C  0.74345280  0.96866987  0.33449170     0.08000
C2695       C  0.70021456  0.51672277  0.34402322    -0.55500
C2696       C  0.69817554  0.99059380  0.36334901     0.08500
H2697       H  0.77179698  0.54685465  0.36358166     0.13100
H2698       H  0.72902402  0.95511142  0.38489892    -0.01200
H2699       H  0.75290203  0.99389890  0.29003272     0.13400
H2700       H  0.67950687  0.53028985  0.33816852     0.13200
C2701       C  0.66722406  0.79062009  0.37493510    -0.14900
C2702       C  0.64796524  0.78539914  0.34842395     0.07300
C2703       C  0.61619140  0.77455886  0.35375772    -0.14900
C2704       C  0.60447830  0.76760816  0.38473119    -0.14900
C2705       C  0.62436062  0.77099890  0.41117179     0.07300
C2706       C  0.65552496  0.78365828  0.40597354    -0.14900
H2707       H  0.69221719  0.79765137  0.37145129     0.11200
H2708       H  0.60114709  0.76930973  0.33379172     0.11200
H2709       H  0.58019276  0.75829608  0.38787687     0.11200
H2710       H  0.67158720  0.78618976  0.42566376     0.11200
C2711       C  0.69517775  0.74263915  0.06299967    -0.14900
C2712       C  0.69208265  0.77101355  0.07874817     0.07300
C2713       C  0.67475356  0.79484931  0.06446364    -0.14900
C2714       C  0.65865258  0.78943284  0.03607898    -0.14900
C2715       C  0.65929624  0.75993589  0.02179552     0.07300
C2716       C  0.67910471  0.73719268  0.03472164    -0.14900
H2717       H  0.70823145  0.72383237  0.07381665     0.11200
H2718       H  0.67158086  0.81669056  0.07650009     0.11200
H2719       H  0.64353578  0.80747933  0.02698353     0.11200
H2720       H  0.68045170  0.71442802  0.02412417     0.11200
C2721       C  0.78972454  0.77187343  0.37716865    -0.14900
C2722       C  0.77011987  0.74672244  0.36704965     0.07300
C2723       C  0.76248988  0.72201815  0.38850490    -0.14900
C2724       C  0.77769921  0.72051175  0.41779171    -0.14900
C2725       C  0.80054528  0.74372086  0.42594691     0.07300
C2726       C  0.80474348  0.77041940  0.40647076    -0.14900
H2727       H  0.79534087  0.79171647  0.36140608     0.11200
H2728       H  0.74720644  0.70257937  0.38153586     0.11200
H2729       H  0.77444504  0.69950306  0.43246785     0.11200
H2730       H  0.82249402  0.78833273  0.41207509     0.11200
C2731       C  0.80494874  0.70269987  0.08218212    -0.14900
C2732       C  0.80955511  0.73018966  0.09922950     0.07300
C2733       C  0.82508805  0.75624390  0.08373289    -0.14900
C2734       C  0.83462182  0.75532630  0.05178942    -0.14900
C2735       C  0.82947675  0.72817708  0.03459393     0.07300
C2736       C  0.81492754  0.70168785  0.05015238    -0.14900
H2737       H  0.79253979  0.68252708  0.09314890     0.11200
H2738       H  0.82915583  0.77785056  0.09617109     0.11200
H2739       H  0.84658938  0.77566524  0.04072114     0.11200
H2740       H  0.81087038  0.68031243  0.03733762     0.11200
C2741       C  0.77433979  0.93160641  0.29957158    -0.14900
C2742       C  0.75239438  0.93652820  0.32480748     0.07300
C2743       C  0.73807110  0.91016350  0.34057349    -0.14900
C2744       C  0.74404583  0.88006287  0.33044717    -0.14900
C2745       C  0.76400333  0.87531004  0.30391095     0.07300
C2746       C  0.77988702  0.90123756  0.28904894    -0.14900
H2747       H  0.78630701  0.95118957  0.28715170     0.11200
H2748       H  0.72036949  0.91245823  0.35940902     0.11200
H2749       H  0.73057645  0.86052996  0.34150475     0.11200
H2750       H  0.79453927  0.89822822  0.26783493     0.11200
C2751       C  0.74699375  0.59070339  0.26446874    -0.14900
C2752       C  0.73625506  0.61722646  0.28046011     0.07300
C2753       C  0.72481149  0.61274392  0.31203716    -0.14900
C2754       C  0.72432513  0.58334578  0.32720568    -0.14900
C2755       C  0.73503094  0.55666563  0.31169482     0.07300
C2756       C  0.74631094  0.56080202  0.27981229    -0.14900
H2757       H  0.75569879  0.59299118  0.24007674     0.11200
H2758       H  0.71630119  0.63221641  0.32551604     0.11200
H2759       H  0.71552362  0.58143664  0.35160080     0.11200
H2760       H  0.75484699  0.54128110  0.26657408     0.11200
C2761       C  0.88363874  0.80898295  0.19370919    -0.14900
C2762       C  0.85862356  0.83003721  0.19568715     0.07300
C2763       C  0.86407181  0.85949830  0.20852837    -0.14900
C2764       C  0.89326570  0.86658980  0.22231634    -0.14900
C2765       C  0.91720907  0.84422004  0.22330125     0.07300
C2766       C  0.91280511  0.81599093  0.20762733    -0.14900
H2767       H  0.87937187  0.78574602  0.18464913     0.11200
H2768       H  0.84471318  0.87564981  0.21086740     0.11200
H2769       H  0.89693269  0.88931984  0.23269359     0.11200
H2770       H  0.93152050  0.79901320  0.20712960     0.11200
C2771       C  0.57547027  0.80164579  0.24326380    -0.14900
C2772       C  0.59052556  0.80304230  0.21321297     0.07300
C2773       C  0.57484715  0.81579783  0.18711965    -0.14900
C2774       C  0.54558662  0.83023657  0.19193719    -0.14900
C2775       C  0.53227990  0.83175945  0.22279678     0.07300
C2776       C  0.54636628  0.81574246  0.24799031    -0.14900
H2777       H  0.58721268  0.79127610  0.26346799     0.11200
H2778       H  0.58634269  0.81678251  0.16377468     0.11200
H2779       H  0.53488408  0.84240689  0.17222698     0.11200
H2780       H  0.53595674  0.81605546  0.27178805     0.11200
C2781       C  0.70098104  0.94994509  0.16939725    -0.14900
C2782       C  0.72169542  0.95876712  0.14354838     0.07300
C2783       C  0.74302063  0.93650620  0.13231953    -0.14900
C2784       C  0.74325681  0.90647209  0.14569273    -0.14900
C2785       C  0.72232051  0.89741471  0.17108379     0.07300
C2786       C  0.70138476  0.91966184  0.18306788    -0.14900
H2787       H  0.68389815  0.96606400  0.17873581     0.11200
H2788       H  0.76001558  0.94190855  0.11321922     0.11200
H2789       H  0.76011954  0.89029518  0.13593235     0.11200
H2790       H  0.68495726  0.91354177  0.20263286     0.11200
C2791       C  0.69998909  0.60259658  0.10890841    -0.14900
C2792       C  0.69804163  0.57708185  0.13079904     0.07300
C2793       C  0.68750653  0.58217793  0.16211325    -0.14900
C2794       C  0.68285530  0.61266319  0.17201231    -0.14900
C2795       C  0.68828729  0.63803673  0.15068846     0.07300
C2796       C  0.69523052  0.63283286  0.11879897    -0.14900
H2797       H  0.70781334  0.59934117  0.08451293     0.11200
H2798       H  0.68520371  0.56340166  0.17960909     0.11200
H2799       H  0.67807660  0.61669011  0.19699162     0.11200
H2800       H  0.70026653  0.65227481  0.10234083     0.11200
C2801       C  0.96001289  0.88781399  0.11297439    -0.14900
C2802       C  0.94211220  0.91446539  0.10803502     0.07300
C2803       C  0.93163152  0.93155164  0.13410497    -0.14900
C2804       C  0.94172951  0.92374972  0.16458509    -0.14900
C2805       C  0.96266470  0.89899571  0.16904658     0.11100
C2806       C  0.97068384  0.88044807  0.14312198    -0.14900
H2807       H  0.96916974  0.87505778  0.09290708     0.11200
H2808       H  0.91847384  0.95272471  0.13048517     0.11200
H2809       H  0.93404924  0.93769754  0.18433744     0.11200
H2810       H  0.98681936  0.86132288  0.14554442     0.11200
C2811       C  0.95033534  0.94782958  0.32353386    -0.14900
C2812       C  0.97602439  0.94740767  0.34436092     0.07300
C2813       C  0.00543472  0.93602260  0.33388748    -0.14900
C2814       C  0.00814218  0.92168995  0.30471785    -0.14900
C2815       C  0.98115372  0.91771413  0.28559940     0.07300
C2816       C  0.95300021  0.93325543  0.29415728    -0.14900
H2817       H  0.92769071  0.95743566  0.33078738     0.11200
H2818       H  0.52617115  0.93710157  0.34892614     0.11200
H2819       H  0.53131110  0.91311986  0.29823530     0.11200
H2820       H  0.93225175  0.93201919  0.27918643     0.11200
C2821       C  0.60845795  0.97144457  0.37278136    -0.14900
C2822       C  0.60552859  0.96195876  0.40487595     0.07300
C2823       C  0.63369794  0.95863662  0.42225654    -0.14900
C2824       C  0.66398814  0.96610964  0.40831072    -0.14900
C2825       C  0.66672256  0.97778853  0.37684821     0.07300
C2826       C  0.63864586  0.97916068  0.35891394    -0.14900
H2827       H  0.58705244  0.47577944  0.35930250     0.11200
H2828       H  0.63207726  0.95264654  0.44740203     0.11200
H2829       H  0.68499286  0.96491081  0.42286396     0.11200
H2830       H  0.63970027  0.48820731  0.33468614     0.11200
C2831       C  0.81836100  0.96049670  0.42813107    -0.14900
C2832       C  0.83675512  0.98622132  0.43818825     0.07300
C2833       C  0.82502526  0.01632570  0.43357512    -0.14900
C2834       C  0.79666150  0.02093279  0.41728072    -0.14900
C2835       C  0.77969588  0.99558642  0.40412325     0.07300
C2836       C  0.79019321  0.96512416  0.41107745    -0.14900
H2837       H  0.82701182  0.93705829  0.43126362     0.11200
H2838       H  0.83870742  0.03654886  0.44137962     0.11200
H2839       H  0.78902334  0.04463740  0.41365649     0.11200
H2840       H  0.77819378  0.94482164  0.40147409     0.11200
C2841       C  0.64796294  0.01082459  0.01253440    -0.14900
C2842       C  0.62383817  0.49280888  0.02837137     0.07300
C2843       C  0.63232147  0.47186903  0.05280943    -0.14900
C2844       C  0.66329250  0.47277917  0.06452027    -0.14900
C2845       C  0.68574038  0.49513246  0.05243584     0.07300
C2846       C  0.67901938  0.51205215  0.02456208    -0.14900
H2847       H  0.64249805  0.02624879  0.49280354     0.11200
H2848       H  0.61447847  0.45653419  0.06459806     0.11200
H2849       H  0.66806027  0.45957998  0.08608250     0.11200
H2850       H  0.69612500  0.02905024  0.01467119     0.11200
C2851       C  0.83729965  0.54911410  0.05550729    -0.14900
C2852       C  0.85579891  0.52318992  0.06253914     0.07300
C2853       C  0.84225599  0.99847949  0.08164575    -0.14900
C2854       C  0.81051444  0.99905301  0.09226568    -0.14900
C2855       C  0.79186800  0.52442796  0.08474196     0.07300
C2856       C  0.80547776  0.54977847  0.06670505    -0.14900
H2857       H  0.84681595  0.56789895  0.04007839     0.11200
H2858       H  0.85594024  0.97803930  0.08721821     0.11200
H2859       H  0.80065463  0.97966663  0.10656835     0.11200
H2860       H  0.79114107  0.56954867  0.06039612     0.11200
C2861       C  0.87992212  0.61700314  0.44762818    -0.14900
C2862       C  0.91276289  0.61386952  0.44351493     0.07300
C2863       C  0.93309600  0.64044728  0.43959901    -0.14900
C2864       C  0.92070924  0.67028522  0.44215716    -0.14900
C2865       C  0.88797190  0.67343905  0.44947729     0.07300
C2866       C  0.86764383  0.64648049  0.45064685    -0.14900
H2867       H  0.86417615  0.59660504  0.45138442     0.11200
H2868       H  0.95876471  0.63800953  0.43689172     0.11200
H2869       H  0.93714996  0.69020974  0.44042589     0.11200
H2870       H  0.84226565  0.64818228  0.45600171     0.11200
C2871       C  0.88959563  0.84725821  0.48393449    -0.14900
C2872       C  0.91937080  0.85471028  0.46883883     0.07300
C2873       C  0.93439358  0.83122898  0.45169777    -0.14900
C2874       C  0.92029396  0.80107718  0.45021929    -0.14900
C2875       C  0.89085147  0.79329579  0.46616006     0.07300
C2876       C  0.87569960  0.81715337  0.48274551    -0.14900
H2877       H  0.87702231  0.86463991  0.49726361     0.11200
H2878       H  0.95716326  0.83606247  0.43950215     0.11200
H2879       H  0.93268209  0.78408924  0.43631869     0.11200
H2880       H  0.85332801  0.81282340  0.49559916     0.11200
C2881       C  0.52353989  0.65617044  0.50273825    -0.14900
C2882       C  0.53967587  0.63034462  0.49081581     0.07300
C2883       C  0.56997637  0.63583449  0.47606466    -0.14900
C2884       C  0.58388102  0.66583390  0.47366085    -0.14900
C2885       C  0.56811348  0.69185696  0.48555978     0.07300
C2886       C  0.53754466  0.68657024  0.50015710    -0.14900
H2887       H  0.00005642  0.65292891  0.51396161     0.11200
H2888       H  0.58331324  0.61683763  0.46628316     0.11200
H2889       H  0.60737733  0.66877517  0.46236786     0.11200
H2890       H  0.52428308  0.70551904  0.50986136     0.11200
C2891       C  0.54197746  0.84536467  0.53328181    -0.14900
C2892       C  0.55669862  0.87230664  0.01915496     0.07300
C2893       C  0.58306094  0.86891717  0.99850573    -0.14900
C2894       C  0.59266328  0.83944100  0.48962377    -0.14900
C2895       C  0.57716145  0.81211183  0.50217541     0.07300
C2896       C  0.55243477  0.81550435  0.52523022    -0.14900
H2897       H  0.52092392  0.84730154  0.54852955     0.11200
H2898       H  0.59402978  0.88926548  0.98637295     0.11200
H2899       H  0.61100309  0.83868398  0.47124256     0.11200
H2900       H  0.54024859  0.79524392  0.53616704     0.11200
C2901       C  0.47441592  0.59846899  0.15398394    -0.14900
C2902       C  0.98540970  0.58452332  0.18191825     0.07300
C2903       C  0.00067931  0.55545516  0.17923794    -0.14900
C2904       C  0.00355163  0.54035601  0.14986449    -0.14900
C2905       C  0.99163423  0.55400452  0.12209969     0.07300
C2906       C  0.47750957  0.58359907  0.12474584    -0.14900
H2907       H  0.46261325  0.62060064  0.15464733     0.11200
H2908       H  0.01069522  0.54416016  0.19981046     0.11200
H2909       H  0.01471984  0.51788454  0.14901574     0.11200
H2910       H  0.46809329  0.59537563  0.10410002     0.11200
C2911       C  0.00462158  0.55858655  0.30497027    -0.14900
C2912       C  0.98972211  0.58765560  0.30311938     0.07300
C2913       C  0.48885777  0.60617757  0.33039289    -0.14900
C2914       C  0.50119077  0.59549598  0.35885610    -0.14900
C2915       C  0.01399126  0.56578398  0.36095539     0.07300
C2916       C  0.01624501  0.54762988  0.33377703    -0.14900
H2917       H  0.00776119  0.54417761  0.28449104     0.11200
H2918       H  0.47915751  0.62935166  0.32944927     0.11200
H2919       H  0.49809965  0.60925483  0.37997794     0.11200
H2920       H  0.02486484  0.52402463  0.33541449     0.11200
C2921       C  0.90609252  0.66417752  0.21166087    -0.14900
C2922       C  0.92385474  0.66288946  0.23944564     0.07300
C2923       C  0.91429541  0.68132952  0.26526681    -0.14900
C2924       C  0.88663098  0.69927832  0.26392572    -0.14900
C2925       C  0.86753507  0.69872436  0.23692108     0.07300
C2926       C  0.87817711  0.68160516  0.21051480    -0.14900
H2927       H  0.91279741  0.65035807  0.19144505     0.11200
H2928       H  0.92782199  0.68116151  0.28692830     0.11200
H2929       H  0.87930943  0.71219032  0.28456666     0.11200
H2930       H  0.86428295  0.68091974  0.18909121     0.11200
C2931       C  0.56131645  0.65178560  0.21411431    -0.14900
C2932       C  0.53591307  0.66502022  0.23070486     0.07300
C2933       C  0.54230126  0.68966502  0.25149459    -0.14900
C2934       C  0.57383552  0.69958233  0.25705174    -0.14900
C2935       C  0.59928200  0.68491630  0.24190741     0.07300
C2936       C  0.59273248  0.66158686  0.21974231    -0.14900
H2937       H  0.55701174  0.63199575  0.19897463     0.11200
H2938       H  0.52299300  0.69939800  0.26535853     0.11200
H2939       H  0.57835201  0.71891532  0.27270600     0.11200
H2940       H  0.61211190  0.65116295  0.20654065     0.11200
C2941       C  0.98322893  0.60340669  0.77158251     0.84900
C2942       C  0.95282867  0.62253772  0.77019448    -0.55300
C2943       C  0.95031383  0.64022775  0.74289862     0.07900
C2944       C  0.47883772  0.63612030  0.71878695     0.18800
C2945       C  0.98231845  0.58340252  0.74168559    -0.56000
C2946       C  0.98119808  0.60009792  0.71360289     0.08000
C2947       C  0.51049780  0.62686813  0.76545672    -0.55500
C2948       C  0.50845167  0.64421558  0.73859446     0.08500
H2949       H  0.93531353  0.62284941  0.78964520     0.13100
H2950       H  0.47769395  0.65069545  0.69676437    -0.01200
H2951       H  0.98250011  0.55815199  0.74250260     0.13400
H2952       H  0.53080074  0.62925824  0.78115707     0.13200
O2953       O  0.53179137  0.54658945  0.91097112    -0.81700
O2954       O  0.87644407  0.96685825  0.97367995    -0.83200
O2955       O  0.95496491  0.97958125  0.88473318    -0.80200
O2956       O  0.92747040  0.56253613  0.93202252    -0.78600
O2957       O  0.93518811  0.58229237  0.98154330    -0.80400
O2958       O  0.98845171  0.94025597  0.89780777    -0.81400
O2959       O  0.89143754  0.99868269  0.93132803    -0.82700
O2960       O  0.98013172  0.53900321  0.89475386    -0.83000
Eu2961     Eu  0.94876036  0.50979890  0.93313363     2.39200
O2962       O  0.92795521  0.51188760  0.98478253    -0.90500
O2963       O  0.00098111  0.99097950  0.93408165    -0.94100
C2964       C  0.00898150  0.54935235  0.89094508     1.00600
C2965       C  0.87025669  0.98318047  0.94841638     1.00400
C2966       C  0.97256073  0.95636091  0.87770798     1.00400
C2967       C  0.92603350  0.58427380  0.95263852     0.98200
H2968       H  0.93247462  0.94556354  0.93949662     0.28000
O2969       O  0.94605500  0.95820912  0.95267092    -1.02900
H2970       H  0.98499643  0.56232796  0.95321801     0.28000
O2971       O  0.98298785  0.54174780  0.96295944    -1.05400
O2972       O  0.92654497  0.93379110  0.55748092    -0.82600
O2973       O  0.58314539  0.51250929  0.99533997    -0.82200
O2974       O  0.96175835  0.89324658  0.95759494    -0.80600
O2975       O  0.90711248  0.54053127  0.54012114    -0.83900
O2976       O  0.99815512  0.59195774  0.50687626    -0.81800
O2977       O  0.55350230  0.94459768  0.92695596    -0.80400
O2978       O  0.53485337  0.92102960  0.53684258    -0.82000
O2979       O  0.50577504  0.51153755  0.58586531    -0.83900
O2980       O  0.52828714  0.90376717  0.98601698    -0.80600
O2981       O  0.97599304  0.55235000  0.56901108    -0.83300
O2982       O  0.91891554  0.90607976  0.98888317    -0.79000
O2983       O  0.57249971  0.99492869  0.93240662    -0.79100
O2984       O  0.54159096  0.57709245  0.97762997    -0.78700
O2985       O  0.88920527  0.98978005  0.53649607    -0.82200
O2986       O  0.97718560  0.94299697  0.57591970    -0.81600
O2987       O  0.56853026  0.98337698  0.53990047    -0.80000
Eu2988     Eu  0.92582280  0.96046356  0.50513803     2.39800
Eu2989     Eu  0.53453699  0.52221415  0.96471207     2.39600
Eu2990     Eu  0.99890527  0.94001560  0.95442972     2.38400
Eu2991     Eu  0.96183572  0.54450338  0.51454596     2.39900
Eu2992     Eu  0.51056419  0.97415092  0.53935561     2.39800
O2993       O  0.51445343  0.52541859  0.51748259    -0.94400
O2994       O  0.97816548  0.94215861  0.00696121    -0.93300
C2995       C  0.94853271  0.93134757  0.57834808     1.00800
C2996       C  0.58976440  0.49656014  0.52066173     0.99500
C2997       C  0.93441940  0.88664627  0.97180508     0.98900
C2998       C  0.88615162  0.51789315  0.54540374     1.00900
C2999       C  0.52543740  0.59782076  0.99219961     0.99800
C3000       C  0.57499587  0.96701725  0.92233151     0.98700
C3001       C  0.53849935  0.90087895  0.51443696     0.98700
C3002       C  0.99160937  0.53799087  0.59048355     1.01300
H3003       H  0.55126483  0.96248303  0.98663357     0.28700
O3004       O  0.53052423  0.97174729  0.98669261    -1.06500
H3005       H  0.94943652  0.99433672  0.55746406     0.30800
O3006       O  0.95864865  0.99343460  0.53629459    -1.09100
C3007       C  0.71052797  0.54629510  0.61966536     0.84900
C3008       C  0.69351759  0.53639435  0.58982292    -0.55300
C3009       C  0.70550819  0.51086012  0.57590966     0.07900
C3010       C  0.73375002  0.99696315  0.59306408     0.18800
C3011       C  0.70863300  0.51667783  0.64163278    -0.56000
C3012       C  0.72095558  0.99047803  0.62753417     0.08000
C3013       C  0.74593440  0.55003838  0.60993702    -0.55500
C3014       C  0.75820069  0.52459107  0.59605969     0.08500
H3015       H  0.67209967  0.54755748  0.58147728     0.13100
H3016       H  0.74337202  0.97674782  0.58042232    -0.01200
H3017       H  0.69879721  0.51626365  0.66563747     0.13400
H3018       H  0.76015344  0.57127882  0.61365872     0.13200
O3019       O  0.64916869  0.70212183  0.76482308    -0.81700
O3020       O  0.72549272  0.78779423  0.62116312    -0.83200
O3021       O  0.63204684  0.77323668  0.69206652    -0.80200
O3022       O  0.67797358  0.69015357  0.66414335    -0.78600
O3023       O  0.72644735  0.66891541  0.67446762    -0.80400
O3024       O  0.64283292  0.80946856  0.72994772    -0.81400
O3025       O  0.68160588  0.75584946  0.63168593    -0.82700
O3026       O  0.63755351  0.71148310  0.71251315    -0.83000
Eu3027     Eu  0.67967349  0.74176026  0.68825034     2.39200
O3028       O  0.73241195  0.73948164  0.67025752    -0.90500
O3029       O  0.67719583  0.75817117  0.74124258    -0.94100
C3030       C  0.63087462  0.70027944  0.74023991     1.00600
C3031       C  0.70026461  0.77218444  0.61263431     1.00400
C3032       C  0.62400711  0.79494554  0.71105174     1.00400
C3033       C  0.69797243  0.66786716  0.66351000     0.98200
H3034       H  0.68786157  0.80683636  0.67648390     0.28000
O3035       O  0.69996331  0.79327619  0.68993971    -1.02900
H3036       H  0.69611733  0.68702994  0.72288891     0.28000
O3037       O  0.70642495  0.70754095  0.72255305    -1.05400
O3038       O  0.80696780  0.81589979  0.67734577    -0.82600
O3039       O  0.73514388  0.73038148  0.82531347    -0.82200
O3040       O  0.70619073  0.85717310  0.70970181    -0.80600
O3041       O  0.78652418  0.71104575  0.64986233    -0.83900
O3042       O  0.75173689  0.65636929  0.73912992    -0.81800
O3043       O  0.67063620  0.80348240  0.79738941    -0.80400
O3044       O  0.77989685  0.82610623  0.78228842    -0.82000
O3045       O  0.82889486  0.73741183  0.75293167    -0.83900
O3046       O  0.72938056  0.84445388  0.77554902    -0.80600
O3047       O  0.81486723  0.69873848  0.71871162    -0.83300
O3048       O  0.74008655  0.84569105  0.66846747    -0.79000
O3049       O  0.67152754  0.75183640  0.81289797    -0.79100
O3050       O  0.71869365  0.66941280  0.78052057    -0.78700
O3051       O  0.78616527  0.76294533  0.63559654    -0.82200
O3052       O  0.82228360  0.80377782  0.72801368    -0.81600
O3053       O  0.78053924  0.76013573  0.81354728    -0.80000
Eu3054     Eu  0.75367616  0.79083227  0.67242420     2.39800
Eu3055     Eu  0.70455434  0.72441920  0.77509189     2.39600
Eu3056     Eu  0.69896025  0.80885898  0.74367596     2.38400
Eu3057     Eu  0.75957295  0.70489267  0.70398195     2.39900
Eu3058     Eu  0.78193844  0.77335303  0.75720686     2.39800
O3059       O  0.75859086  0.72240784  0.75700679    -0.94400
O3060       O  0.75255617  0.80736275  0.72519858    -0.93300
C3061       C  0.82695171  0.81616522  0.70023719     1.00800
C3062       C  0.76116667  0.74537932  0.83323012     0.99500
C3063       C  0.72274352  0.86476363  0.68409266     0.98900
C3064       C  0.79354545  0.73458960  0.63058449     1.00900
C3065       C  0.73570078  0.64957707  0.76542164     0.99800
C3066       C  0.66386532  0.78031174  0.81719870     0.98700
C3067       C  0.75793834  0.84665874  0.78608330     0.98700
C3068       C  0.83516815  0.71278614  0.73645579     1.01300
H3069       H  0.72792392  0.78309409  0.79640032     0.28700
O3070       O  0.72837100  0.77488938  0.77525866    -1.06500
H3071       H  0.80377098  0.75526633  0.69654131     0.30800
O3072       O  0.78208192  0.75594605  0.70472730    -1.09100
C3073       C  0.58568803  0.72393704  0.98235143     0.84900
C3074       C  0.61734349  0.72413379  0.50036762    -0.55300
C3075       C  0.63527953  0.75133431  0.49738827     0.07900
C3076       C  0.62037477  0.77553424  0.97511605     0.18800
C3077       C  0.56879464  0.75345285  0.99427157    -0.56000
C3078       C  0.58713082  0.78071304  0.99080020     0.08000
C3079       C  0.59521080  0.73223556  0.94768468    -0.55500
C3080       C  0.61331926  0.75912449  0.94350649     0.08500
H3081       H  0.62296773  0.70553441  0.51711243     0.13100
H3082       H  0.63624882  0.79649882  0.97170730    -0.01200
H3083       H  0.54481200  0.75303449  0.00450694     0.13400
H3084       H  0.58835026  0.71763430  0.92801108     0.13200
C3085       C  0.98055509  0.89507358  0.75816012     0.84900
C3086       C  0.00941655  0.87398528  0.75434601    -0.55300
C3087       C  0.00700720  0.85382168  0.72997944     0.07900
C3088       C  0.97634000  0.85636979  0.71135926     0.18800
C3089       C  0.97711595  0.91119652  0.72537231    -0.56000
C3090       C  0.97436671  0.89068952  0.70087415     0.08000
C3091       C  0.95167366  0.87186365  0.76092383    -0.55500
C3092       C  0.94879931  0.85266906  0.73555613     0.08500
H3093       H  0.53006021  0.87392798  0.76938550     0.13100
H3094       H  0.97458915  0.83906232  0.69220776    -0.01200
H3095       H  0.97483594  0.93626673  0.72233025     0.13400
H3096       H  0.93248927  0.87387797  0.77855215     0.13200
C3097       C  0.87309261  0.70384513  0.95850356     0.84900
C3098       C  0.84475973  0.71013924  0.93758693    -0.55300
C3099       C  0.82720007  0.73472826  0.94627447     0.07900
C3100       C  0.84051643  0.75214456  0.97517748     0.18800
C3101       C  0.89307187  0.73480175  0.95733893    -0.56000
C3102       C  0.87613533  0.76063024  0.96581369     0.08000
C3103       C  0.85943043  0.70149513  0.99248620    -0.55500
C3104       C  0.84239640  0.72642297  0.00156047     0.08500
H3105       H  0.83920865  0.69627582  0.91693816     0.13100
H3106       H  0.82552782  0.77192263  0.98195129    -0.01200
H3107       H  0.91826021  0.73610084  0.95090986     0.13400
H3108       H  0.86361453  0.68176647  0.50839742     0.13200
C3109       C  0.73409385  0.52531616  0.83093454     0.84900
C3110       C  0.75519038  0.52724858  0.86043275    -0.55300
C3111       C  0.75433696  0.00118484  0.87985630     0.07900
C3112       C  0.73089428  0.97550668  0.86836426     0.18800
C3113       C  0.74509672  0.99484611  0.81467566    -0.56000
C3114       C  0.74345549  0.96866459  0.83448956     0.08000
C3115       C  0.70021619  0.51672448  0.84402534    -0.55500
C3116       C  0.69817920  0.99059233  0.86334649     0.08500
H3117       H  0.77180572  0.54685219  0.86356692     0.13100
H3118       H  0.72902325  0.95510921  0.88489832    -0.01200
H3119       H  0.75290480  0.99389563  0.79003062     0.13400
H3120       H  0.67950777  0.53029198  0.83817403     0.13200
C3121       C  0.66722774  0.79062552  0.87492480    -0.14900
C3122       C  0.64796715  0.78540422  0.84841532     0.07300
C3123       C  0.61619374  0.77456372  0.85375048    -0.14900
C3124       C  0.60448293  0.76761250  0.88472447    -0.14900
C3125       C  0.62436755  0.77100245  0.91116358     0.07300
C3126       C  0.65553131  0.78366243  0.90596356    -0.14900
H3127       H  0.69222056  0.79765726  0.87143920     0.11200
H3128       H  0.60114824  0.76931474  0.83378528     0.11200
H3129       H  0.58019754  0.75830044  0.88787156     0.11200
H3130       H  0.67159532  0.78619333  0.92565239     0.11200
C3131       C  0.69518513  0.74265639  0.56299196    -0.14900
C3132       C  0.69208226  0.77102643  0.57874678     0.07300
C3133       C  0.67473680  0.79485641  0.56447283    -0.14900
C3134       C  0.65862985  0.78943821  0.53609196    -0.14900
C3135       C  0.65928324  0.75994477  0.52180240     0.07300
C3136       C  0.67910479  0.73720762  0.53471850    -0.14900
H3137       H  0.70824972  0.72385332  0.57380176     0.11200
H3138       H  0.67155658  0.81669329  0.57651523     0.11200
H3139       H  0.64350160  0.80747913  0.52700436     0.11200
H3140       H  0.68045744  0.71444541  0.52411663     0.11200
C3141       C  0.78972826  0.77187925  0.87716399    -0.14900
C3142       C  0.77011853  0.74673035  0.86704848     0.07300
C3143       C  0.76248219  0.72203118  0.88850799    -0.14900
C3144       C  0.77769081  0.72052612  0.91779538    -0.14900
C3145       C  0.80054222  0.74373161  0.92594686     0.07300
C3146       C  0.80474615  0.77042672  0.90646668    -0.14900
H3147       H  0.79534965  0.79171882  0.86139838     0.11200
H3148       H  0.74719449  0.70259439  0.88154194     0.11200
H3149       H  0.77443218  0.69952003  0.93247471     0.11200
H3150       H  0.82250076  0.78833722  0.91206821     0.11200
C3151       C  0.80494661  0.70270537  0.58218140    -0.14900
C3152       C  0.80954973  0.73019595  0.59922769     0.07300
C3153       C  0.82507908  0.75625202  0.58373055    -0.14900
C3154       C  0.83461464  0.75533437  0.55178798    -0.14900
C3155       C  0.82947519  0.72818339  0.53459436     0.07300
C3156       C  0.81492754  0.70169328  0.55015267    -0.14900
H3157       H  0.79254006  0.68253146  0.59314863     0.11200
H3158       H  0.82914406  0.77785972  0.59616775     0.11200
H3159       H  0.84658056  0.77567403  0.54071957     0.11200
H3160       H  0.81087437  0.68031668  0.53733880     0.11200
C3161       C  0.77433503  0.93160706  0.79955625    -0.14900
C3162       C  0.75240520  0.93652385  0.82480678     0.07300
C3163       C  0.73810585  0.91015473  0.84058711    -0.14900
C3164       C  0.74408466  0.88005536  0.83045862    -0.14900
C3165       C  0.76402243  0.87530820  0.80390701     0.07300
C3166       C  0.77988539  0.90123990  0.78903185    -0.14900
H3167       H  0.78628659  0.95119216  0.78712537     0.11200
H3168       H  0.72041747  0.91244266  0.85943561     0.11200
H3169       H  0.73063120  0.86051831  0.84152745     0.11200
H3170       H  0.79452221  0.89823426  0.76780676     0.11200
C3171       C  0.74698491  0.59070108  0.76446066    -0.14900
C3172       C  0.73625050  0.61722484  0.78045416     0.07300
C3173       C  0.72480965  0.61274221  0.81203193    -0.14900
C3174       C  0.72432427  0.58334402  0.82720013    -0.14900
C3175       C  0.73502737  0.55666350  0.81168799     0.07300
C3176       C  0.74630216  0.56079927  0.77980371    -0.14900
H3177       H  0.75568697  0.59298882  0.74006766     0.11200
H3178       H  0.71630185  0.63221492  0.82551201     0.11200
H3179       H  0.71552610  0.58143525  0.85159638     0.11200
H3180       H  0.75483502  0.54127768  0.76656436     0.11200
C3181       C  0.88364826  0.80895606  0.69371593    -0.14900
C3182       C  0.85863597  0.83001508  0.69567862     0.07300
C3183       C  0.86408559  0.85948220  0.70850495    -0.14900
C3184       C  0.89327639  0.86657553  0.72229719    -0.14900
C3185       C  0.91721558  0.84420247  0.72329839     0.07300
C3186       C  0.91281235  0.81596683  0.70763670    -0.14900
H3187       H  0.87937981  0.78571501  0.68466671     0.11200
H3188       H  0.84472898  0.87563764  0.71083130     0.11200
H3189       H  0.89694456  0.88930991  0.73266481     0.11200
H3190       H  0.93152612  0.79898707  0.70715077     0.11200
C3191       C  0.57547731  0.80164875  0.74326479    -0.14900
C3192       C  0.59053111  0.80304437  0.71321328     0.07300
C3193       C  0.57485068  0.81579586  0.68711935    -0.14900
C3194       C  0.54558980  0.83023315  0.69193683    -0.14900
C3195       C  0.53228509  0.83175820  0.72279684     0.07300
C3196       C  0.54637282  0.81574402  0.74799131    -0.14900
H3197       H  0.58722116  0.79128100  0.76346913     0.11200
H3198       H  0.58634493  0.81677884  0.66377379     0.11200
H3199       H  0.53488525  0.84240084  0.67222602     0.11200
H3200       H  0.53596395  0.81605809  0.77178927     0.11200
C3201       C  0.70098033  0.94994612  0.66938768    -0.14900
C3202       C  0.72169163  0.95876782  0.64353619     0.07300
C3203       C  0.74301554  0.93650611  0.63230561    -0.14900
C3204       C  0.74325277  0.90647206  0.64567932    -0.14900
C3205       C  0.72232026  0.89741580  0.67107378     0.07300
C3206       C  0.70138618  0.91966346  0.68305955    -0.14900
H3207       H  0.68389862  0.96606494  0.67872839     0.11200
H3208       H  0.76000974  0.94190780  0.61320439     0.11200
H3209       H  0.76011415  0.89029469  0.63591738     0.11200
H3210       H  0.68496167  0.91354429  0.70262724     0.11200
C3211       C  0.69998581  0.60259416  0.60891774    -0.14900
C3212       C  0.69803299  0.57707750  0.63080546     0.07300
C3213       C  0.68749009  0.58217101  0.66211809    -0.14900
C3214       C  0.68283949  0.61265630  0.67201946    -0.14900
C3215       C  0.68827865  0.63803162  0.65069870     0.07300
C3216       C  0.69522719  0.63282958  0.61881007    -0.14900
H3217       H  0.70781517  0.59934089  0.58452345     0.11200
H3218       H  0.68518092  0.56339250  0.67961112     0.11200
H3219       H  0.67805525  0.61668139  0.69699814     0.11200
H3220       H  0.70026832  0.65227247  0.60235437     0.11200
C3221       C  0.96000942  0.88780461  0.61297184    -0.14900
C3222       C  0.94210922  0.91445686  0.60803384     0.07300
C3223       C  0.93162936  0.93154158  0.63410516    -0.14900
C3224       C  0.94172767  0.92373791  0.66458471    -0.14900
C3225       C  0.96266244  0.89898333  0.66904505     0.11100
C3226       C  0.97068008  0.88043627  0.64311940    -0.14900
H3227       H  0.96916573  0.87504926  0.59290372     0.11200
H3228       H  0.91847218  0.95271519  0.63048691     0.11200
H3229       H  0.93404791  0.93768525  0.68433758     0.11200
H3230       H  0.98681474  0.86131020  0.64554084     0.11200
C3231       C  0.95032196  0.94780298  0.82353970    -0.14900
C3232       C  0.97601503  0.94738769  0.84436208     0.07300
C3233       C  0.00542890  0.93601618  0.83388216    -0.14900
C3234       C  0.00813747  0.92168935  0.80470973    -0.14900
C3235       C  0.98114638  0.91770413  0.78559690     0.07300
C3236       C  0.95298793  0.93323425  0.79416071    -0.14900
H3237       H  0.92767462  0.95740022  0.83079825     0.11200
H3238       H  0.52616527  0.93710424  0.84891685     0.11200
H3239       H  0.53130750  0.91313321  0.79821962     0.11200
H3240       H  0.93223731  0.93199247  0.77919308     0.11200
C3241       C  0.60846130  0.97144202  0.87277034    -0.14900
C3242       C  0.60552906  0.96196190  0.90486649     0.07300
C3243       C  0.63369640  0.95864440  0.92225098    -0.14900
C3244       C  0.66398758  0.96611651  0.90830774    -0.14900
C3245       C  0.66672512  0.97778887  0.87684341     0.07300
C3246       C  0.63865065  0.97915674  0.85890510    -0.14900
H3247       H  0.58705932  0.47576908  0.85931178     0.11200
H3248       H  0.63207314  0.95265891  0.94739740     0.11200
H3249       H  0.68499061  0.96492188  0.92286379     0.11200
H3250       H  0.63970631  0.48819482  0.83469204     0.11200
C3251       C  0.81835362  0.96048163  0.92814085    -0.14900
C3252       C  0.83675363  0.98620429  0.93819371     0.07300
C3253       C  0.82503075  0.01631058  0.93357463    -0.14900
C3254       C  0.79666970  0.02092156  0.91727721    -0.14900
C3255       C  0.77969887  0.99557694  0.90412282     0.07300
C3256       C  0.79018803  0.96511282  0.91108419    -0.14900
H3257       H  0.82699852  0.93704153  0.93127834     0.11200
H3258       H  0.83871727  0.03653235  0.94137590     0.11200
H3259       H  0.78903792  0.04462767  0.91364860     0.11200
H3260       H  0.77818417  0.94481100  0.90148438     0.11200
C3261       C  0.64796118  0.01079604  0.51252610    -0.14900
C3262       C  0.62384089  0.49279661  0.52836329     0.07300
C3263       C  0.63232124  0.47186404  0.55280904    -0.14900
C3264       C  0.66329001  0.47277941  0.56452541    -0.14900
C3265       C  0.68573911  0.49513034  0.55243837     0.07300
C3266       C  0.67902139  0.51204338  0.52455957    -0.14900
H3267       H  0.64249895  0.02628769  0.99282044     0.11200
H3268       H  0.61447705  0.45653193  0.56459957     0.11200
H3269       H  0.66805479  0.45958616  0.58609214     0.11200
H3270       H  0.69612840  0.02901192  0.51464384     0.11200
C3271       C  0.83729295  0.54911846  0.55550578    -0.14900
C3272       C  0.85579787  0.52319994  0.56254508     0.07300
C3273       C  0.84225729  0.99849262  0.58165986    -0.14900
C3274       C  0.81051432  0.99906569  0.59227619    -0.14900
C3275       C  0.79186695  0.52443347  0.58475047     0.07300
C3276       C  0.80547120  0.54978064  0.56670499    -0.14900
H3277       H  0.84680445  0.56789961  0.54006947     0.11200
H3278       H  0.85594288  0.97805482  0.58723822     0.11200
H3279       H  0.80065406  0.97968116  0.60658164     0.11200
H3280       H  0.79112990  0.56954570  0.56038982     0.11200
C3281       C  0.87992848  0.61701049  0.94758545    -0.14900
C3282       C  0.91277349  0.61387824  0.94350889     0.07300
C3283       C  0.93310942  0.64045724  0.93962499    -0.14900
C3284       C  0.92071925  0.67029373  0.94217893    -0.14900
C3285       C  0.88797422  0.67344568  0.94946424     0.07300
C3286       C  0.86764632  0.64648685  0.95060370    -0.14900
H3287       H  0.86417940  0.59661110  0.95131659     0.11200
H3288       H  0.95878086  0.63802069  0.93694681     0.11200
H3289       H  0.93716286  0.69021714  0.94047647     0.11200
H3290       H  0.84226347  0.64818637  0.95593528     0.11200
C3291       C  0.88959755  0.84725882  0.98393139    -0.14900
C3292       C  0.91937337  0.85470798  0.96883538     0.07300
C3293       C  0.93439208  0.83122680  0.95169130    -0.14900
C3294       C  0.92028951  0.80107658  0.95021305    -0.14900
C3295       C  0.89084859  0.79329669  0.96615788     0.07300
C3296       C  0.87569895  0.81715520  0.98274337    -0.14900
H3297       H  0.87702640  0.86464141  0.99726130     0.11200
H3298       H  0.95716106  0.83605890  0.93949382     0.11200
H3299       H  0.93267479  0.78408862  0.93631004     0.11200
H3300       H  0.85332793  0.81282639  0.99559852     0.11200
C3301       C  0.52353806  0.65618089  0.00272825    -0.14900
C3302       C  0.53967168  0.63035293  0.99080738     0.07300
C3303       C  0.56997210  0.63584022  0.97605480    -0.14900
C3304       C  0.58387989  0.66583823  0.97365030    -0.14900
C3305       C  0.56811611  0.69186306  0.98554997     0.07300
C3306       C  0.53754624  0.68657963  0.00014646    -0.14900
H3307       H  0.00005459  0.65294182  0.01395105     0.11200
H3308       H  0.58330721  0.61684213  0.96627345     0.11200
H3309       H  0.60737632  0.66877685  0.96235704     0.11200
H3310       H  0.52428674  0.70553021  0.00984995     0.11200
C3311       C  0.54199268  0.84536958  0.03327426    -0.14900
C3312       C  0.55667740  0.87230086  0.51915436     0.07300
C3313       C  0.58303198  0.86891096  0.49849566    -0.14900
C3314       C  0.59269486  0.83944691  0.98963523    -0.14900
C3315       C  0.57718457  0.81211696  0.00217608     0.07300
C3316       C  0.55245035  0.81550952  0.02522287    -0.14900
H3317       H  0.52093351  0.84730587  0.04851432     0.11200
H3318       H  0.59399524  0.88925856  0.48635670     0.11200
H3319       H  0.61104309  0.83869113  0.97126238     0.11200
H3320       H  0.54025760  0.79524946  0.03615303     0.11200
C3321       C  0.47441607  0.59845289  0.65398554    -0.14900
C3322       C  0.98541125  0.58450973  0.68191913     0.07300
C3323       C  0.00068170  0.55544178  0.67923967    -0.14900
C3324       C  0.00355393  0.54034176  0.64986669    -0.14900
C3325       C  0.99163585  0.55398957  0.62210182     0.07300
C3326       C  0.47750973  0.58358245  0.62474810    -0.14900
H3327       H  0.46261106  0.62058328  0.65464836     0.11200
H3328       H  0.01069899  0.54414797  0.69981209     0.11200
H3329       H  0.01472326  0.51787079  0.64901823     0.11200
H3330       H  0.46809123  0.59535776  0.60410265     0.11200
C3331       C  0.00461863  0.55857985  0.80497752    -0.14900
C3332       C  0.98974493  0.58766130  0.80311980     0.07300
C3333       C  0.48890790  0.60619355  0.83038821    -0.14900
C3334       C  0.50123684  0.59551012  0.85885288    -0.14900
C3335       C  0.01400530  0.56578744  0.86095797     0.07300
C3336       C  0.01624025  0.54762387  0.83378482    -0.14900
H3337       H  0.00773899  0.54415933  0.78450442     0.11200
H3338       H  0.47922624  0.62937546  0.82943825     0.11200
H3339       H  0.49816234  0.60927805  0.87997070     0.11200
H3340       H  0.02484066  0.52401159  0.83542834     0.11200
C3341       C  0.90608657  0.66415570  0.71166579    -0.14900
C3342       C  0.92385581  0.66287613  0.73944647     0.07300
C3343       C  0.91430076  0.68132224  0.76526461    -0.14900
C3344       C  0.88663532  0.69927036  0.76392426    -0.14900
C3345       C  0.86753347  0.69870966  0.73692360     0.07300
C3346       C  0.87817030  0.68158248  0.71052065    -0.14900
H3347       H  0.91278762  0.65033130  0.69145234     0.11200
H3348       H  0.92783237  0.68116061  0.78692295     0.11200
H3349       H  0.87931860  0.71218845  0.78456272     0.11200
H3350       H  0.86427222  0.68089123  0.68909986     0.11200
C3351       C  0.56132772  0.65177092  0.71411267    -0.14900
C3352       C  0.53591673  0.66501649  0.73068252     0.07300
C3353       C  0.54229636  0.68967577  0.75145698    -0.14900
C3354       C  0.57382832  0.69959657  0.75702123    -0.14900
C3355       C  0.59928161  0.68491953  0.74189990     0.07300
C3356       C  0.59274148  0.66157544  0.71974824    -0.14900
H3357       H  0.55702962  0.63197027  0.69898554     0.11200
H3358       H  0.52298258  0.69941810  0.76530568     0.11200
H3359       H  0.57833811  0.71894068  0.77266333     0.11200
H3360       H  0.61212637  0.65114283  0.70656244     0.11200
loop_ 
_geom_bond_atom_site_label_1 
_geom_bond_atom_site_label_2 
_geom_bond_distance 
_geom_bond_site_symmetry_2 
_ccdc_geom_bond_type 
C1            C2   1.532       .  S
C1            C5   1.538       .  S
C1         C1687   1.510       .  S
C1          C392   1.509       .  S
C2            H9   1.086       .  S
C2            C3   1.370       .  D
C3         C1684   1.564       .  S
C3          C402   1.498       .  S
C4            C8   1.542   1_655  S
C4         C1683   1.564       .  S
C4         C1686   1.568       .  S
C4           H10   1.109       .  S
C5           H11   1.081       .  S
C5            C6   1.371       .  D
C6         C1684   1.568       .  S
C6          C382   1.512       .  S
C7         C1681   1.510   1_455  S
C7           H12   1.090       .  S
C7            C8   1.345       .  D
C8          C412   1.459       .  S
O13         Eu49   2.476       .  S
O13        C1704   1.292       .  A
O14        Eu468   2.493       .  S
O14          C25   1.295       .  A
O15        Eu861   2.456       .  S
O15          C26   1.290       .  A
O16         Eu21   2.450       .  S
O16          C27   1.287       .  A
O17        Eu471   2.421       .  S
O17          C27   1.285       .  A
O18         Eu50   2.432       .  S
O18          C26   1.288       .  A
O19        Eu861   2.442       .  S
O19          C25   1.288       .  A
O20         Eu21   2.367       .  S
O20          C24   1.276       .  A
Eu21        O855   2.455   1_545  S
Eu21        O859   2.438   1_545  S
Eu21         O31   2.349       .  S
Eu21         O22   2.327       .  S
Eu21        O863   2.343   1_545  S
Eu21        O869   2.341   1_545  S
O22        Eu471   2.357       .  S
O22       Eu1308   2.349   1_545  S
O23         Eu50   2.325       .  S
O23        Eu861   2.343       .  S
O23       Eu2569   2.343       .  S
C24        O1693   1.292       .  A
C24         C395   1.439       .  S
C25         C312   1.482       .  S
C26         C292   1.468       .  S
C27         C342   1.446       .  S
H28          O29   0.965       .  S
O29         Eu50   2.365       .  S
O29        Eu861   2.342       .  S
O29        Eu468   2.352       .  S
H30          O31   0.964       .  S
O31       Eu1729   2.335       .  S
O31        Eu471   2.332       .  S
O32         Eu48   2.461       .  S
O32          C55   1.290       .  A
O33         Eu49   2.467       .  S
O33         C476   1.293   1_545  A
O34         Eu50   2.496       .  S
O34          C57   1.298       .  A
O35         Eu51   2.505       .  S
O35          C58   1.299       .  A
O36         Eu51   2.510       .  S
O36        C2159   1.299   1_554  A
O37       Eu1730   2.534   1_455  S
O37          C60   1.303       .  A
O38         Eu52   2.516       .  S
O38          C61   1.300       .  A
O39        Eu892   2.566   1_545  S
O39        C1742   1.310   1_455  A
O40       Eu1730   2.404   1_455  S
O40         C481   1.284       .  A
O41         Eu51   2.407       .  S
O41          C62   1.283       .  A
O42        Eu468   2.451       .  S
O42          C57   1.291       .  A
O43        Eu889   2.412       .  S
O43          C60   1.282       .  A
O44         Eu49   2.435       .  S
O44          C59   1.289       .  A
O45         Eu48   2.399       .  S
O45         C898   1.282       .  A
O46       Eu1732   2.408       .  S
O46          C55   1.284       .  A
O47         Eu52   2.446       .  S
O47         C896   1.290       .  A
Eu48        O434   2.493   1_554  S
Eu48        O462   2.451   1_554  S
Eu48         O66   2.374       .  S
Eu48       O1282   2.349   1_554  S
Eu48        O449   2.352   1_554  S
Eu48        O474   2.346       .  S
Eu49        O883   2.414   1_545  S
Eu49       O2543   2.343   1_545  S
Eu49       O1711   2.335   1_455  S
Eu49        O473   2.365       .  S
Eu49        O904   2.338   1_545  S
Eu50       O1717   2.534       .  S
Eu50       O1720   2.404       .  S
Eu50         O54   2.361       .  S
Eu50       O1744   2.342       .  S
Eu51        O437   2.421   1_554  S
Eu51        O442   2.357   1_554  S
Eu51        O451   2.332   1_554  S
Eu51       O1733   2.372       .  S
Eu51        O906   2.356   1_545  S
Eu52        O879   2.566       .  S
Eu52       O1726   2.408   1_455  S
Eu52        O893   2.364       .  S
Eu52        O484   2.356   1_554  S
Eu52       O1746   2.349   1_455  S
Eu52       O2154   2.370   1_455  S
O53        Eu469   2.365   1_554  S
O53       Eu1731   2.372   1_455  S
O53        Eu892   2.365   1_545  S
O54        Eu468   2.346       .  S
O54       Eu2152   2.370       .  S
C55         C282   1.446       .  S
C56         O453   1.293   1_564  A
C56         O887   1.290       .  A
C56         C322   1.477       .  S
C57         C352   1.496       .  S
C58         O885   1.282   1_545  A
C58         C332   1.471       .  S
C59        O2136   1.299   1_455  A
C59         C362   1.498       .  S
C60         C302   1.481       .  S
C61         O460   1.284   1_554  A
C61         C372   1.469       .  S
C62        O1719   1.310       .  A
C62         C385   1.509       .  S
H63          O64   0.963       .  S
O64        Eu889   2.337       .  S
O64       Eu1730   2.342   1_455  S
O64        Eu472   2.356       .  S
H65          O66   0.965       .  S
O66        Eu891   2.357       .  S
O66       Eu1732   2.349       .  S
C67          C68   1.518       .  S
C67          C73   1.528       .  S
C67          C71   1.552       .  S
C67         C272   1.512       .  S
C68          H75   1.088       .  S
C68          C69   1.355       .  D
C69         C910   1.533   1_545  S
C69         C325   1.462   1_545  S
C70          C72   1.551       .  S
C70         C909   1.534       .  S
C70         C914   1.544       .  S
C70          H76   1.107       .  S
C71          H77   1.081       .  S
C71         C912   1.379   1_545  D
C72         C911   1.379       .  D
C72         C262   1.503       .  S
C73          H78   1.087       .  S
C73          C74   1.356       .  D
C74         C910   1.544   1_545  S
C74         C335   1.475       .  S
O79        Eu115   2.526       .  S
O79          C90   1.302       .  A
O80        Eu114   2.484       .  S
O80          C91   1.292       .  A
O81         Eu87   2.438       .  S
O81          C92   1.286       .  A
O82         Eu87   2.450       .  S
O82          C93   1.287       .  A
O83        Eu117   2.422       .  S
O83          C93   1.285       .  A
O84        Eu116   2.425       .  S
O84          C92   1.287       .  A
O85         Eu87   2.445       .  S
O85          C91   1.287       .  A
O86         Eu87   2.357       .  S
O86          C90   1.274       .  A
Eu87         O97   2.358       .  S
Eu87         O89   2.353       .  S
Eu87         O88   2.319       .  S
Eu87         O95   2.343       .  S
O88        Eu117   2.361       .  S
O88        Eu114   2.353       .  S
O89        Eu115   2.346       .  S
O89        Eu116   2.330       .  S
C90         C415   1.457       .  S
C91         C192   1.477       .  S
C92         C252   1.451       .  S
C93         C275   1.447       .  S
H94          O95   0.964       .  S
O95        Eu116   2.372       .  S
O95        Eu114   2.352       .  S
H96          O97   0.966       .  S
O97        Eu115   2.345       .  S
O97        Eu117   2.343       .  S
O98        Eu114   2.457       .  S
O98         C121   1.288       .  A
O99        Eu115   2.513       .  S
O99         C122   1.300       .  A
O100       Eu116   2.494       .  S
O100        C123   1.297       .  A
O101       Eu117   2.523       .  S
O101        C124   1.302       .  A
O102       Eu117   2.531       .  S
O102        C125   1.303       .  A
O103       Eu116   2.529       .  S
O103        C126   1.302       .  A
O104       Eu118   2.520       .  S
O104        C127   1.300       .  A
O105       Eu118   2.538       .  S
O105        C128   1.305       .  A
O106       Eu116   2.401       .  S
O106        C127   1.282       .  A
O107       Eu117   2.421       .  S
O107        C128   1.286       .  A
O108       Eu114   2.439       .  S
O108        C123   1.289       .  A
O109       Eu115   2.432       .  S
O109        C126   1.286       .  A
O110       Eu115   2.456       .  S
O110        C125   1.293       .  A
O111       Eu114   2.399       .  S
O111        C124   1.282       .  A
O112       Eu118   2.396       .  S
O112        C121   1.281       .  A
O113       Eu118   2.423       .  S
O113        C122   1.287       .  A
Eu114       O132   2.362       .  S
Eu114       O120   2.345       .  S
Eu115       O119   2.370       .  S
Eu115       O130   2.350       .  S
Eu116       O130   2.343       .  S
Eu116       O120   2.356       .  S
Eu117       O119   2.371       .  S
Eu117       O132   2.355       .  S
Eu118       O119   2.362       .  S
Eu118       O130   2.349       .  S
Eu118       O132   2.346       .  S
Eu118       O120   2.353       .  S
C121        C242   1.440       .  S
C122        C202   1.483       .  S
C123        C265   1.491       .  S
C124        C212   1.483       .  S
C125        C232   1.512       .  S
C126        C182   1.483       .  S
C127        C225   1.471       .  S
C128        C405   1.497       .  S
H129        O130   0.963       .  S
H131        O132   0.963       .  S
C133        C139   1.535       .  S
C133        C137   1.552       .  S
C133        C554   1.539       .  S
C133        C365   1.540       .  S
C134        C553   1.539   1_554  S
C134        H141   1.086       .  S
C134        C135   1.368   1_554  D
C135        C556   1.537       .  S
C135        C195   1.496   1_556  S
C136        C140   1.548       .  S
C136        C138   1.548       .  S
C136        C555   1.537       .  S
C136        H142   1.104       .  S
C137        H143   1.081       .  S
C137        C138   1.379       .  D
C138        C375   1.503       .  S
C139        H144   1.086       .  S
C139        C140   1.365       .  D
C140        C185   1.502       .  S
C145        C146   1.534       .  S
C145        C151   1.540       .  S
C145        C149   1.541       .  S
C145        C295   1.523       .  S
C146       H1833   1.081       .  S
C146        C147   1.358       .  D
C147        C148   1.522       .  S
C147       C1935   1.468       .  S
C148        C152   1.522       .  S
C148        C150   1.530       .  S
C148        H154   1.108       .  S
C149        H155   1.085       .  S
C149        C150   1.373       .  D
C150        C285   1.476       .  S
C151        H156   1.086       .  S
C151        C152   1.366       .  D
C152        C245   1.466       .  S
H153       C1826   1.081       .  S
C157        C158   1.518       .  S
C157        C163   1.528       .  S
C157        C161   1.545       .  S
C157        C345   1.511       .  S
C158        H165   1.088       .  S
C158        C159   1.353       .  D
C159        C160   1.546       .  S
C159        C205   1.474       .  S
C160        C164   1.552       .  S
C160        C162   1.559       .  S
C160        H166   1.107       .  S
C161        H167   1.080       .  S
C161        C162   1.379       .  D
C162        C355   1.509       .  S
C163        H588   1.087       .  S
C163        C164   1.357       .  D
C164        C635   1.484       .  S
H168        C583   1.087   1_554  S
C169        C170   1.540       .  S
C169        C175   1.538       .  S
C169       C1013   1.552   1_545  S
C169        C235   1.552       .  S
C170        H177   1.085       .  S
C170       C1011   1.372       .  D
C171        C172   1.542       .  S
C171       C1010   1.372       .  D
C171        C315   1.508       .  S
C172        C176   1.545       .  S
C172        C174   1.545       .  S
C172        H178   1.105       .  S
C173       C1009   1.553       .  S
C173        H179   1.082       .  S
C173        C174   1.381       .  D
C174        C222   1.499       .  S
C175        H180   1.086       .  S
C175       C1016   1.367   1_545  D
C176       C1015   1.367       .  D
C176        C305   1.503       .  S
C181        C182   1.407       .  A
C181        C186   1.407       .  A
C181        H187   1.083       .  S
C182        C183   1.404       .  A
C183        C184   1.405       .  A
C183        H188   1.084       .  S
C184        C185   1.411       .  A
C184        H189   1.083       .  S
C185        C186   1.406       .  A
C186        H190   1.083       .  S
C191        C192   1.404       .  A
C191        C196   1.400       .  A
C191        H197   1.084       .  S
C192        C193   1.402       .  A
C193        C194   1.404       .  A
C193        H198   1.083       .  S
C194        C195   1.411       .  A
C194        H199   1.081       .  S
C195        C196   1.405       .  A
C196        H200   1.083       .  S
C201        C202   1.412       .  A
C201        C206   1.397       .  A
C201        H207   1.083       .  S
C202        C203   1.401       .  A
C203        C204   1.400       .  A
C203        H208   1.083       .  S
C204        C205   1.410       .  A
C204        H209   1.083       .  S
C205        C206   1.397       .  A
C206        H210   1.084       .  S
C211        C212   1.402       .  A
C211        C216   1.404       .  A
C211        H217   1.083       .  S
C212        C213   1.413       .  A
C213        C214   1.395       .  A
C213        H218   1.083       .  S
C214        C215   1.396       .  A
C214        H219   1.082       .  S
C215        C584   1.484       .  S
C215        C216   1.411       .  A
C216        H220   1.083       .  S
C221        C222   1.411       .  A
C221        C226   1.407       .  A
C221        H227   1.082       .  S
C222        C223   1.407       .  A
C223        C224   1.394       .  A
C223        H228   1.080       .  S
C224        C225   1.401       .  A
C224        H229   1.084       .  S
C225        C226   1.404       .  A
C226        H230   1.083       .  S
C231        C232   1.412       .  A
C231        C236   1.421       .  A
C231        H237   1.083       .  S
C232        C233   1.409       .  A
C233        C234   1.398       .  A
C233        H238   1.083       .  S
C234        C235   1.407       .  A
C234        H239   1.083       .  S
C235        C236   1.418       .  A
C236        H240   1.079       .  S
C241        C242   1.402       .  A
C241        C246   1.391       .  A
C241        H247   1.084       .  S
C242        C243   1.397       .  A
C243        C244   1.389       .  A
C243        H248   1.084       .  S
C244        C245   1.406       .  A
C244        H249   1.083       .  S
C245        C246   1.399       .  A
C246        H250   1.083       .  S
C251        C252   1.399       .  A
C251        C256   1.385       .  A
C251        H257   1.084       .  S
C252        C253   1.400       .  A
C253        C254   1.398       .  A
C253        H258   1.083       .  S
C254        C255   1.405       .  A
C254        H259   1.082       .  S
C255       C1827   1.468       .  S
C255        C256   1.400       .  A
C256        H260   1.083       .  S
C261        C262   1.412       .  A
C261        C266   1.408       .  A
C261        H267   1.081       .  S
C262        C263   1.406       .  A
C263        C264   1.393       .  A
C263        H268   1.077       .  S
C264        C265   1.406       .  A
C264        H269   1.083       .  S
C265        C266   1.407       .  A
C266        H270   1.083       .  S
C271        C272   1.413       .  A
C271        C276   1.387       .  A
C271        H277   1.084       .  S
C272        C273   1.404       .  A
C273        C274   1.396       .  A
C273        H278   1.079       .  S
C274        C275   1.404       .  A
C274        H279   1.084       .  S
C275        C276   1.391       .  A
C276        H280   1.084       .  S
C281        C282   1.397       .  A
C281        C286   1.387       .  A
C281        H287   1.084       .  S
C282        C283   1.401       .  A
C283        C284   1.396       .  A
C283        H288   1.084       .  S
C284        C285   1.406       .  A
C284        H289   1.082       .  S
C285        C286   1.404       .  A
C286        H290   1.081       .  S
C291        C292   1.400       .  A
C291        C296   1.400       .  A
C291        H297   1.083       .  S
C292        C293   1.401       .  A
C293        C294   1.388       .  A
C293       H1978   1.084       .  S
C294        C295   1.408       .  A
C294       H1979   1.077       .  S
C295        C296   1.412       .  A
C296        H300   1.083       .  S
H298       C1973   1.084       .  S
H299       C1974   1.077       .  S
C301        C302   1.403       .  A
C301        C306   1.404       .  A
C301       H1147   1.084       .  S
C302        C303   1.408       .  A
C303        C304   1.408       .  A
C303        H308   1.084       .  S
C304        C305   1.406       .  A
C304        H309   1.083       .  S
C305        C306   1.410       .  A
C306       H1150   1.083       .  S
H307       C1141   1.084       .  S
H310       C1146   1.083       .  S
C311        C312   1.402       .  A
C311        C316   1.408       .  A
C311        H317   1.083       .  S
C312        C313   1.404       .  A
C313        C314   1.399       .  A
C313        H318   1.084       .  S
C314        C315   1.408       .  A
C314        H319   1.082       .  S
C315        C316   1.415       .  A
C316        H320   1.081       .  S
C321       C1162   1.405       .  A
C321       C1166   1.396       .  A
C321        H747   1.083   1_554  S
C322        C323   1.408       .  A
C322       C1161   1.405   1_565  A
C323        C324   1.394       .  A
C323        H328   1.083       .  S
C324        C325   1.399       .  A
C324        H329   1.084       .  S
C325        C326   1.403   1_565  A
C326       C1161   1.395       .  A
C326       H1170   1.083       .  S
H327        C741   1.083       .  S
H330       C1166   1.084       .  S
C331        C332   1.401       .  A
C331        C336   1.402       .  A
C331        H337   1.083       .  S
C332       C1173   1.408   1_545  A
C333        C334   1.391       .  A
C333       C1172   1.408       .  A
C333        H338   1.084       .  S
C334       C1175   1.395       .  A
C334        H339   1.080       .  S
C335        C336   1.409       .  A
C335       C1174   1.395   1_545  A
C336        H340   1.083       .  S
C341        C342   1.390       .  A
C341        C346   1.384       .  A
C341        H347   1.084       .  S
C342        C343   1.403       .  A
C343        C344   1.397       .  A
C343        H348   1.084       .  S
C344        C345   1.405       .  A
C344        H349   1.079       .  S
C345        C346   1.412       .  A
C346        H350   1.084       .  S
C351        C352   1.409       .  A
C351        C356   1.400       .  A
C351        H357   1.083       .  S
C352        C353   1.405       .  A
C353        C354   1.406       .  A
C353        H358   1.083       .  S
C354        C355   1.414       .  A
C354        H359   1.080       .  S
C355        C356   1.407       .  A
C356        H360   1.079       .  S
C361        C362   1.408       .  A
C361        C366   1.412       .  A
C361       H2047   1.083       .  S
C362        C363   1.408       .  A
C363        C364   1.394       .  A
C363        H368   1.083       .  S
C364        C365   1.407       .  A
C364        H369   1.083       .  S
C365        C366   1.415       .  A
C366        H370   1.078       .  S
H367       C2041   1.083       .  S
C371        C376   1.408       .  A
C371        C792   1.404       .  A
C371        H377   1.083       .  S
C372        C373   1.400   1_554  A
C372        C791   1.404       .  A
C373        C794   1.391       .  A
C373        H378   1.085       .  S
C374        C375   1.407       .  A
C374        C793   1.391       .  A
C374        H379   1.078       .  S
C375        C376   1.414       .  A
C376        H380   1.081       .  S
C381        C386   1.402       .  A
C381       C2062   1.400       .  A
C381        H387   1.082       .  S
C382        C383   1.421       .  A
C382       C2061   1.400       .  A
C383        C384   1.411       .  A
C383        H388   1.081       .  S
C384        C385   1.403       .  A
C384        H389   1.083       .  S
C385       C2066   1.419       .  A
C386       C2065   1.419       .  A
C386        H390   1.083       .  S
C391        C392   1.409       .  A
C391        C396   1.393       .  A
C391        H397   1.078       .  S
C392       C2073   1.410       .  A
C393        C394   1.388   1_655  A
C393       C2072   1.410       .  A
C393        H398   1.083       .  S
C394       C2075   1.396       .  A
C394        H399   1.084   1_455  S
C395        C396   1.400       .  A
C395       C2074   1.396       .  A
C396        H400   1.084       .  S
C401        C402   1.399       .  A
C401        C406   1.404       .  A
C401        H407   1.083       .  S
C402        C403   1.414       .  A
C403        C404   1.408       .  A
C403        H408   1.083       .  S
C404        C405   1.403       .  A
C404        H409   1.083       .  S
C405        C406   1.415       .  A
C406        H410   1.083       .  S
C411        C412   1.398       .  A
C411        C416   1.392       .  A
C411        H417   1.084       .  S
C412        C413   1.408       .  A
C413        C414   1.398       .  A
C413        H418   1.084       .  S
C414        C415   1.399       .  A
C414        H419   1.084       .  S
C415        C416   1.406       .  A
C416        H420   1.084       .  S
C421        C422   1.532       .  S
C421       C2107   1.510       .  S
C421        C425   1.538       .  S
C421        C812   1.509       .  S
C422        H429   1.086       .  S
C422        C423   1.370       .  D
C423       C2104   1.564       .  S
C423        C822   1.498       .  S
C424       C2103   1.564       .  S
C424        C428   1.542   1_655  S
C424       C2106   1.568       .  S
C424        H430   1.109       .  S
C425        H431   1.081       .  S
C425        C426   1.371       .  D
C426       C2104   1.568       .  S
C426        C802   1.512       .  S
C427       C2101   1.510   1_455  S
C427        H432   1.090       .  S
C427        C428   1.345       .  D
C428        C832   1.459       .  S
O433       Eu469   2.476       .  S
O433       C2124   1.292       .  A
O434        C445   1.295       .  A
O435      Eu1281   2.456       .  S
O435        C446   1.290       .  A
O436       Eu441   2.450       .  S
O436        C447   1.287       .  A
O437        C447   1.285       .  A
O438       Eu470   2.432       .  S
O438        C446   1.288       .  A
O439      Eu1281   2.442       .  S
O439        C445   1.288       .  A
O440       Eu441   2.367       .  S
O440        C444   1.276       .  A
Eu441      O1275   2.455   1_545  S
Eu441      O1279   2.438   1_545  S
Eu441       O451   2.349       .  S
Eu441      O1283   2.343   1_545  S
Eu441       O442   2.327       .  S
Eu441      O1289   2.341   1_545  S
O442       Eu888   2.349   1_546  S
O443      Eu1281   2.343       .  S
O443      Eu2989   2.343       .  S
O443       Eu470   2.325       .  S
C444       O2113   1.292       .  A
C444        C815   1.439       .  S
C445        C732   1.482       .  S
C446        C712   1.468       .  S
C447        C762   1.446       .  S
H448        O449   0.965       .  S
O449      Eu1281   2.342       .  S
O449       Eu470   2.365       .  S
H450        O451   0.964       .  S
O451      Eu2149   2.335       .  S
O452       Eu468   2.461       .  S
O452        C475   1.290       .  A
O453       Eu469   2.467       .  S
O454       Eu470   2.496       .  S
O454        C477   1.298       .  A
O455       Eu471   2.505       .  S
O455        C478   1.299       .  A
O456       Eu471   2.511       .  S
O456       C1739   1.299       .  A
O457      Eu2150   2.534   1_455  S
O457        C480   1.303       .  A
O458       Eu472   2.516       .  S
O458        C481   1.300       .  A
O459      Eu1312   2.566   1_545  S
O459       C2162   1.310   1_455  A
O460      Eu2150   2.404   1_455  S
O461       Eu471   2.407       .  S
O461        C482   1.283       .  A
O462        C477   1.291       .  A
O463      Eu1309   2.412       .  S
O463        C480   1.282       .  A
O464       Eu469   2.435       .  S
O464        C479   1.289       .  A
O465       Eu468   2.399       .  S
O465       C1318   1.282       .  A
O466      Eu2152   2.408       .  S
O466        C475   1.284       .  A
O467       Eu472   2.446       .  S
O467       C1316   1.290       .  A
Eu468       O862   2.349       .  S
Eu468       O486   2.374       .  S
Eu469      O1303   2.414   1_545  S
Eu469      O2963   2.343   1_545  S
Eu469      O2131   2.335   1_455  S
Eu469      O1324   2.338   1_545  S
Eu470      O2137   2.534       .  S
Eu470      O2140   2.404       .  S
Eu470      O2164   2.342       .  S
Eu470       O474   2.361   1_556  S
Eu471      O2153   2.372       .  S
Eu471      O1326   2.356   1_545  S
Eu472      O1299   2.566       .  S
Eu472      O2146   2.408   1_455  S
Eu472      O1313   2.364       .  S
Eu472      O2166   2.349   1_455  S
Eu472      O1734   2.370   1_455  S
O473      Eu2151   2.372   1_455  S
O473      Eu1312   2.365   1_545  S
O474      Eu1732   2.370       .  S
C475        C702   1.446       .  S
C476       O1307   1.290       .  A
C476        C742   1.477       .  S
C477        C772   1.496       .  S
C478       O1305   1.282   1_545  A
C478        C752   1.471       .  S
C479       O1716   1.299   1_456  A
C479        C782   1.498       .  S
C480        C722   1.481       .  S
C481        C792   1.469       .  S
C482       O2139   1.309       .  A
C482        C805   1.509       .  S
H483        O484   0.963       .  S
O484      Eu1309   2.337       .  S
O484      Eu2150   2.342   1_455  S
H485        O486   0.965       .  S
O486      Eu1311   2.357       .  S
O486      Eu2152   2.349       .  S
C487        C488   1.518       .  S
C487        C493   1.528       .  S
C487        C491   1.552       .  S
C487        C692   1.512       .  S
C488        H495   1.088       .  S
C488        C489   1.355       .  D
C489       C1330   1.533   1_545  S
C489        C745   1.462   1_545  S
C490       C1329   1.534       .  S
C490       C1334   1.544       .  S
C490        C492   1.551       .  S
C490        H496   1.107       .  S
C491        H497   1.081       .  S
C491       C1332   1.380   1_545  D
C492       C1331   1.379       .  D
C492        C682   1.503       .  S
C493        H498   1.087       .  S
C493        C494   1.356       .  D
C494       C1330   1.544   1_545  S
C494        C755   1.475       .  S
O499       Eu535   2.526       .  S
O499        C510   1.302       .  A
O500       Eu534   2.484       .  S
O500        C511   1.292       .  A
O501       Eu507   2.438       .  S
O501        C512   1.286       .  A
O502       Eu507   2.450       .  S
O502        C513   1.287       .  A
O503       Eu537   2.422       .  S
O503        C513   1.285       .  A
O504       Eu536   2.425       .  S
O504        C512   1.287       .  A
O505       Eu507   2.445       .  S
O505        C511   1.287       .  A
O506       Eu507   2.357       .  S
O506        C510   1.274       .  A
Eu507       O517   2.358       .  S
Eu507       O509   2.353       .  S
Eu507       O508   2.319       .  S
Eu507       O515   2.343       .  S
O508       Eu537   2.361       .  S
O508       Eu534   2.353       .  S
O509       Eu535   2.346       .  S
O509       Eu536   2.330       .  S
C510        C835   1.457       .  S
C511        C612   1.477       .  S
C512        C672   1.451       .  S
C513        C695   1.447       .  S
H514        O515   0.964       .  S
O515       Eu536   2.372       .  S
O515       Eu534   2.352       .  S
H516        O517   0.966       .  S
O517       Eu535   2.345       .  S
O517       Eu537   2.343       .  S
O518       Eu534   2.457       .  S
O518        C541   1.288       .  A
O519       Eu535   2.513       .  S
O519        C542   1.300       .  A
O520       Eu536   2.494       .  S
O520        C543   1.297       .  A
O521       Eu537   2.522       .  S
O521        C544   1.302       .  A
O522       Eu537   2.531       .  S
O522        C545   1.303       .  A
O523       Eu536   2.530       .  S
O523        C546   1.302       .  A
O524       Eu538   2.521       .  S
O524        C547   1.300       .  A
O525       Eu538   2.538       .  S
O525        C548   1.305       .  A
O526       Eu536   2.401       .  S
O526        C547   1.282       .  A
O527       Eu537   2.421       .  S
O527        C548   1.286       .  A
O528       Eu534   2.439       .  S
O528        C543   1.289       .  A
O529       Eu535   2.432       .  S
O529        C546   1.286       .  A
O530       Eu535   2.456       .  S
O530        C545   1.293       .  A
O531       Eu534   2.399       .  S
O531        C544   1.282       .  A
O532       Eu538   2.396       .  S
O532        C541   1.281       .  A
O533       Eu538   2.423       .  S
O533        C542   1.287       .  A
Eu534       O552   2.362       .  S
Eu534       O540   2.345       .  S
Eu535       O539   2.370       .  S
Eu535       O550   2.350       .  S
Eu536       O550   2.343       .  S
Eu536       O540   2.356       .  S
Eu537       O539   2.371       .  S
Eu537       O552   2.355       .  S
Eu538       O539   2.362       .  S
Eu538       O550   2.349       .  S
Eu538       O552   2.346       .  S
Eu538       O540   2.353       .  S
C541        C662   1.440       .  S
C542        C622   1.483       .  S
C543        C685   1.491       .  S
C544        C632   1.483       .  S
C545        C652   1.512       .  S
C546        C602   1.483       .  S
C547        C645   1.471       .  S
C548        C825   1.497       .  S
H549        O550   0.963       .  S
H551        O552   0.963       .  S
C553        C559   1.536       .  S
C553        C557   1.552       .  S
C553        C785   1.540       .  S
C554        H561   1.086       .  S
C554        C555   1.368       .  D
C555        C615   1.496       .  S
C556        C560   1.548       .  S
C556        C558   1.548       .  S
C556        H562   1.104       .  S
C557        H563   1.081   1_556  S
C557        C558   1.379       .  D
C558        C795   1.503   1_556  S
C559        H564   1.086       .  S
C559        C560   1.365       .  D
C560        C605   1.502       .  S
C565        C566   1.534       .  S
C565        C571   1.540       .  S
C565        C569   1.541       .  S
C565        C715   1.523       .  S
C566       H2253   1.081       .  S
C566        C567   1.358       .  D
C567        C568   1.522       .  S
C567       C2355   1.468       .  S
C568        C572   1.522       .  S
C568        C570   1.530       .  S
C568        H574   1.108       .  S
C569        H575   1.085       .  S
C569        C570   1.373       .  D
C570        C705   1.476       .  S
C571        H576   1.086       .  S
C571        C572   1.366       .  D
C572        C665   1.466       .  S
H573       C2246   1.081       .  S
C577        C578   1.518       .  S
C577        C583   1.528       .  S
C577        C581   1.545       .  S
C577        C765   1.511       .  S
C578        H585   1.088       .  S
C578        C579   1.353       .  D
C579        C580   1.546       .  S
C579        C625   1.474       .  S
C580        C584   1.552   1_556  S
C580        C582   1.559       .  S
C580        H586   1.107       .  S
C581        H587   1.080       .  S
C581        C582   1.379       .  D
C582        C775   1.509       .  S
C583        C584   1.357   1_556  D
C589        C590   1.540       .  S
C589        C595   1.538       .  S
C589       C1433   1.552   1_545  S
C589        C655   1.552       .  S
C590        H597   1.085       .  S
C590       C1431   1.372       .  D
C591        C592   1.542       .  S
C591       C1430   1.372       .  D
C591        C735   1.508       .  S
C592        C596   1.545       .  S
C592        C594   1.545       .  S
C592        H598   1.105       .  S
C593       C1429   1.553       .  S
C593        H599   1.082       .  S
C593        C594   1.381       .  D
C594        C642   1.499       .  S
C595        H600   1.086       .  S
C595       C1436   1.367   1_545  D
C596       C1435   1.367       .  D
C596        C725   1.503       .  S
C601        C602   1.407       .  A
C601        C606   1.407       .  A
C601        H607   1.083       .  S
C602        C603   1.404       .  A
C603        C604   1.405       .  A
C603        H608   1.084       .  S
C604        C605   1.411       .  A
C604        H609   1.083       .  S
C605        C606   1.406       .  A
C606        H610   1.083       .  S
C611        C612   1.404       .  A
C611        C616   1.400       .  A
C611        H617   1.084       .  S
C612        C613   1.402       .  A
C613        C614   1.404       .  A
C613        H618   1.083       .  S
C614        C615   1.411       .  A
C614        H619   1.081       .  S
C615        C616   1.405       .  A
C616        H620   1.083       .  S
C621        C622   1.412       .  A
C621        C626   1.397       .  A
C621        H627   1.083       .  S
C622        C623   1.401       .  A
C623        C624   1.400       .  A
C623        H628   1.083       .  S
C624        C625   1.410       .  A
C624        H629   1.083       .  S
C625        C626   1.397       .  A
C626        H630   1.084       .  S
C631        C632   1.402       .  A
C631        C636   1.404       .  A
C631        H637   1.083       .  S
C632        C633   1.413       .  A
C633        C634   1.395       .  A
C633        H638   1.083       .  S
C634        C635   1.396       .  A
C634        H639   1.082       .  S
C635        C636   1.411       .  A
C636        H640   1.083       .  S
C641        C642   1.411       .  A
C641        C646   1.407       .  A
C641        H647   1.082       .  S
C642        C643   1.407       .  A
C643        C644   1.394       .  A
C643        H648   1.080       .  S
C644        C645   1.401       .  A
C644        H649   1.084       .  S
C645        C646   1.404       .  A
C646        H650   1.083       .  S
C651        C652   1.412       .  A
C651        C656   1.421       .  A
C651        H657   1.083       .  S
C652        C653   1.409       .  A
C653        C654   1.398       .  A
C653        H658   1.083       .  S
C654        C655   1.407       .  A
C654        H659   1.083       .  S
C655        C656   1.418       .  A
C656        H660   1.079       .  S
C661        C662   1.402       .  A
C661        C666   1.391       .  A
C661        H667   1.084       .  S
C662        C663   1.397       .  A
C663        C664   1.389       .  A
C663        H668   1.084       .  S
C664        C665   1.406       .  A
C664        H669   1.083       .  S
C665        C666   1.399       .  A
C666        H670   1.083       .  S
C671        C672   1.399       .  A
C671        C676   1.385       .  A
C671        H677   1.084       .  S
C672        C673   1.400       .  A
C673        C674   1.398       .  A
C673        H678   1.083       .  S
C674        C675   1.405       .  A
C674        H679   1.082       .  S
C675       C2247   1.468       .  S
C675        C676   1.400       .  A
C676        H680   1.083       .  S
C681        C682   1.412       .  A
C681        C686   1.408       .  A
C681        H687   1.081       .  S
C682        C683   1.406       .  A
C683        C684   1.393       .  A
C683        H688   1.077       .  S
C684        C685   1.406       .  A
C684        H689   1.083       .  S
C685        C686   1.406       .  A
C686        H690   1.083       .  S
C691        C692   1.413       .  A
C691        C696   1.387       .  A
C691        H697   1.084       .  S
C692        C693   1.404       .  A
C693        C694   1.396       .  A
C693        H698   1.079       .  S
C694        C695   1.404       .  A
C694        H699   1.084       .  S
C695        C696   1.391       .  A
C696        H700   1.084       .  S
C701        C702   1.397       .  A
C701        C706   1.387       .  A
C701        H707   1.084       .  S
C702        C703   1.401       .  A
C703        C704   1.396       .  A
C703        H708   1.084       .  S
C704        C705   1.406       .  A
C704        H709   1.082       .  S
C705        C706   1.404       .  A
C706        H710   1.081       .  S
C711        C712   1.400       .  A
C711        C716   1.400       .  A
C711        H717   1.083       .  S
C712        C713   1.401       .  A
C713        C714   1.388       .  A
C713       H2398   1.084       .  S
C714        C715   1.408       .  A
C714       H2399   1.077       .  S
C715        C716   1.412       .  A
C716        H720   1.083       .  S
H718       C2393   1.084       .  S
H719       C2394   1.077       .  S
C721        C722   1.403       .  A
C721        C726   1.404       .  A
C721       H1567   1.084       .  S
C722        C723   1.408       .  A
C723        C724   1.408       .  A
C723        H728   1.084       .  S
C724        C725   1.406       .  A
C724        H729   1.083       .  S
C725        C726   1.410       .  A
C726       H1570   1.083       .  S
H727       C1561   1.084       .  S
H730       C1566   1.083       .  S
C731        C732   1.402       .  A
C731        C736   1.408       .  A
C731        H737   1.083       .  S
C732        C733   1.404       .  A
C733        C734   1.399       .  A
C733        H738   1.084       .  S
C734        C735   1.408       .  A
C734        H739   1.082       .  S
C735        C736   1.415       .  A
C736        H740   1.081       .  S
C741       C1582   1.405       .  A
C741       C1586   1.396       .  A
C742       C1581   1.405   1_565  A
C742        C743   1.408       .  A
C743        C744   1.394       .  A
C743        H748   1.083       .  S
C744        C745   1.399       .  A
C744        H749   1.084       .  S
C745        C746   1.403   1_565  A
C746       C1581   1.395       .  A
C746       H1590   1.083       .  S
H750       C1586   1.084       .  S
C751        C752   1.401       .  A
C751        C756   1.402       .  A
C751        H757   1.083       .  S
C752       C1593   1.408   1_545  A
C753       C1592   1.408       .  A
C753        C754   1.391       .  A
C753        H758   1.084       .  S
C754       C1595   1.395       .  A
C754        H759   1.080       .  S
C755       C1594   1.395   1_545  A
C755        C756   1.409       .  A
C756        H760   1.083       .  S
C761        C762   1.390       .  A
C761        C766   1.384       .  A
C761        H767   1.084       .  S
C762        C763   1.403       .  A
C763        C764   1.397       .  A
C763        H768   1.084       .  S
C764        C765   1.405       .  A
C764        H769   1.079       .  S
C765        C766   1.412       .  A
C766        H770   1.084       .  S
C771        C772   1.409       .  A
C771        C776   1.400       .  A
C771        H777   1.083       .  S
C772        C773   1.405       .  A
C773        C774   1.406       .  A
C773        H778   1.083       .  S
C774        C775   1.414       .  A
C774        H779   1.080       .  S
C775        C776   1.407       .  A
C776        H780   1.079       .  S
C781        C782   1.408   1_554  A
C781        C786   1.412       .  A
C781       H2467   1.083       .  S
C782        C783   1.408       .  A
C783        C784   1.394       .  A
C783        H788   1.083       .  S
C784        C785   1.407       .  A
C784        H789   1.083       .  S
C785        C786   1.415   1_556  A
C786        H790   1.078       .  S
H787       C2461   1.083       .  S
C791        C796   1.408       .  A
C791        H797   1.083       .  S
C792        C793   1.400       .  A
C793        H798   1.085       .  S
C794        C795   1.407   1_556  A
C794        H799   1.078       .  S
C795        C796   1.414       .  A
C796        H800   1.081       .  S
C801       C2482   1.400       .  A
C801        C806   1.402       .  A
C801        H807   1.082       .  S
C802       C2481   1.400       .  A
C802        C803   1.421       .  A
C803        C804   1.411       .  A
C803        H808   1.081       .  S
C804        C805   1.403       .  A
C804        H809   1.083       .  S
C805       C2486   1.419       .  A
C806       C2485   1.419       .  A
C806        H810   1.083       .  S
C811        C812   1.409       .  A
C811        C816   1.393       .  A
C811        H817   1.078       .  S
C812       C2493   1.410       .  A
C813       C2492   1.410       .  A
C813        C814   1.388   1_655  A
C813        H818   1.083       .  S
C814       C2495   1.396       .  A
C814        H819   1.084   1_455  S
C815       C2494   1.396       .  A
C815        C816   1.400       .  A
C816        H820   1.084       .  S
C821        C822   1.399       .  A
C821        C826   1.404       .  A
C821        H827   1.083       .  S
C822        C823   1.414       .  A
C823        C824   1.408       .  A
C823        H828   1.083       .  S
C824        C825   1.403       .  A
C824        H829   1.083       .  S
C825        C826   1.415       .  A
C826        H830   1.083       .  S
C831        C832   1.398       .  A
C831        C836   1.392       .  A
C831        H837   1.084       .  S
C832        C833   1.408       .  A
C833        C834   1.398       .  A
C833        H838   1.084       .  S
C834        C835   1.399       .  A
C834        H839   1.084       .  S
C835        C836   1.406       .  A
C836        H840   1.084       .  S
C841        C842   1.533       .  S
C841       C2527   1.510       .  S
C841        C845   1.538       .  S
C841       C1232   1.509       .  S
C842        H849   1.086       .  S
C842        C843   1.370       .  D
C843       C2524   1.564       .  S
C843       C1242   1.499       .  S
C844       C2523   1.564       .  S
C844        C848   1.542   1_655  S
C844       C2526   1.568       .  S
C844        H850   1.109       .  S
C845        H851   1.081       .  S
C845        C846   1.370       .  D
C846       C2524   1.568       .  S
C846       C1222   1.513       .  S
C847       C2521   1.510   1_455  S
C847        H852   1.090       .  S
C847        C848   1.345       .  D
C848       C1252   1.459       .  S
O853       Eu889   2.477       .  S
O853       C2544   1.292       .  A
O854      Eu1308   2.494       .  S
O854        C865   1.295       .  A
O855        C866   1.289       .  A
O856       Eu861   2.451       .  S
O856        C867   1.288       .  A
O857      Eu1311   2.422       .  S
O857        C867   1.285       .  A
O858       Eu890   2.432       .  S
O858        C866   1.288       .  A
O859        C865   1.287       .  A
O860       Eu861   2.368       .  S
O860        C864   1.277       .  A
Eu861       O871   2.350       .  S
Eu861       O862   2.327       .  S
O862      Eu1311   2.357       .  S
O863      Eu1729   2.343   1_565  S
O863       Eu890   2.325       .  S
C864       O2533   1.292       .  A
C864       C1235   1.440       .  S
C865       C1152   1.481       .  S
C866       C1132   1.468       .  S
C867       C1182   1.446       .  S
H868        O869   0.965       .  S
O869       Eu890   2.365       .  S
O869      Eu1308   2.351       .  S
H870        O871   0.964       .  S
O871      Eu2569   2.335       .  S
O871      Eu1311   2.332       .  S
O872       Eu888   2.460       .  S
O872        C895   1.289       .  A
O873       Eu889   2.469       .  S
O873       C1316   1.293       .  A
O874       Eu890   2.495       .  S
O874        C897   1.298       .  A
O875       Eu891   2.504       .  S
O875        C898   1.299       .  A
O876       Eu891   2.510       .  S
O876       C2999   1.299   1_554  A
O877      Eu2570   2.534   1_455  S
O877        C900   1.303       .  A
O878       Eu892   2.521       .  S
O878        C901   1.301       .  A
O879       C2582   1.310   1_455  A
O880      Eu2570   2.404   1_455  S
O880       C1321   1.283       .  A
O881       Eu891   2.408       .  S
O881        C902   1.283       .  A
O882      Eu1308   2.451       .  S
O882        C897   1.291       .  A
O883        C900   1.283       .  A
O884       Eu889   2.434       .  S
O884        C899   1.288       .  A
O885       Eu888   2.398       .  S
O886      Eu2572   2.407       .  S
O886        C895   1.284       .  A
O887       Eu892   2.442       .  S
Eu888      O1274   2.494   1_554  S
Eu888      O1302   2.451   1_554  S
Eu888      O1289   2.351   1_554  S
Eu888       O906   2.373       .  S
Eu888      O1314   2.346       .  S
Eu889      O1703   2.343       .  S
Eu889      O2551   2.335   1_455  S
Eu889      O1313   2.365       .  S
Eu890      O2557   2.534       .  S
Eu890      O2560   2.404       .  S
Eu890      O2584   2.341       .  S
Eu890       O894   2.361       .  S
Eu891      O1277   2.422   1_554  S
Eu891      O1282   2.357   1_554  S
Eu891      O1291   2.332   1_554  S
Eu891      O2573   2.372       .  S
Eu892      O2566   2.407   1_455  S
Eu892      O1324   2.356   1_554  S
Eu892      O2586   2.348   1_455  S
Eu892      O2994   2.370   1_455  S
O893      Eu1309   2.365   1_554  S
O893      Eu2571   2.372   1_455  S
O894      Eu1308   2.346       .  S
O894      Eu2992   2.370       .  S
C895       C1122   1.446       .  S
C896       O1293   1.293   1_554  A
C896       C1162   1.479       .  S
C897       C1192   1.496       .  S
C898       C1172   1.471       .  S
C899       O2976   1.299   1_455  A
C899       C1202   1.497       .  S
C900       C1142   1.482       .  S
C901       O1300   1.283   1_554  A
C901       C1212   1.471       .  S
C902       O2559   1.310       .  A
C902       C1225   1.509       .  S
H903        O904   0.963       .  S
O904      Eu2570   2.341   1_455  S
O904      Eu1312   2.356       .  S
H905        O906   0.965       .  S
O906      Eu2572   2.348       .  S
C907        C908   1.518       .  S
C907        C913   1.528       .  S
C907        C911   1.552       .  S
C907       C1112   1.512       .  S
C908        H915   1.088       .  S
C908        C909   1.355       .  D
C909       C1165   1.463       .  S
C910        C912   1.551       .  S
C910        H916   1.107       .  S
C911        H917   1.082       .  S
C912       C1102   1.504       .  S
C913        H918   1.087       .  S
C913        C914   1.356       .  D
C914       C1175   1.475       .  S
O919       Eu955   2.525       .  S
O919        C930   1.302       .  A
O920       Eu954   2.484       .  S
O920        C931   1.292       .  A
O921       Eu927   2.440       .  S
O921        C932   1.286       .  A
O922       Eu927   2.451       .  S
O922        C933   1.287       .  A
O923       Eu957   2.420       .  S
O923        C933   1.285       .  A
O924       Eu956   2.427       .  S
O924        C932   1.287       .  A
O925       Eu927   2.442       .  S
O925        C931   1.286       .  A
O926       Eu927   2.355       .  S
O926        C930   1.274       .  A
Eu927       O937   2.357       .  S
Eu927       O929   2.353       .  S
Eu927       O928   2.319       .  S
Eu927       O935   2.342       .  S
O928       Eu957   2.361       .  S
O928       Eu954   2.350       .  S
O929       Eu955   2.346       .  S
O929       Eu956   2.333       .  S
C930       C1255   1.456       .  S
C931       C1032   1.475       .  S
C932       C1092   1.452       .  S
C933       C1115   1.447       .  S
H934        O935   0.964       .  S
O935       Eu956   2.371       .  S
O935       Eu954   2.352       .  S
H936        O937   0.966       .  S
O937       Eu955   2.341       .  S
O937       Eu957   2.344       .  S
O938       Eu954   2.456       .  S
O938        C961   1.288       .  A
O939       Eu955   2.507       .  S
O939        C962   1.299       .  A
O940       Eu956   2.496       .  S
O940        C963   1.297       .  A
O941       Eu957   2.523       .  S
O941        C964   1.303       .  A
O942       Eu957   2.533       .  S
O942        C965   1.303       .  A
O943       Eu956   2.531       .  S
O943        C966   1.302       .  A
O944       Eu958   2.516       .  S
O944        C967   1.300       .  A
O945       Eu958   2.534       .  S
O945        C968   1.304       .  A
O946       Eu956   2.404       .  S
O946        C967   1.283       .  A
O947       Eu957   2.425       .  S
O947        C968   1.286       .  A
O948       Eu954   2.436       .  S
O948        C963   1.289       .  A
O949       Eu955   2.427       .  S
O949        C966   1.285       .  A
O950       Eu955   2.452       .  S
O950        C965   1.292       .  A
O951       Eu954   2.399       .  S
O951        C964   1.282       .  A
O952       Eu958   2.399       .  S
O952        C961   1.282       .  A
O953       Eu958   2.425       .  S
O953        C962   1.287       .  A
Eu954       O972   2.361       .  S
Eu954       O960   2.345       .  S
Eu955       O959   2.370       .  S
Eu955       O970   2.352       .  S
Eu956       O970   2.342       .  S
Eu956       O960   2.356       .  S
Eu957       O959   2.369       .  S
Eu957       O972   2.354       .  S
Eu958       O959   2.362       .  S
Eu958       O970   2.350       .  S
Eu958       O972   2.346       .  S
Eu958       O960   2.353       .  S
C961       C1082   1.441       .  S
C962       C1042   1.481       .  S
C963       C1105   1.491       .  S
C964       C1052   1.484       .  S
C965       C1072   1.511       .  S
C966       C1022   1.482       .  S
C967       C1065   1.470       .  S
C968       C1245   1.497       .  S
H969        O970   0.963       .  S
H971        O972   0.963       .  S
C973       C1394   1.538       .  S
C973        C979   1.535       .  S
C973        C977   1.553       .  S
C973       C1205   1.539       .  S
C974       C1393   1.538   1_554  S
C974        H981   1.086       .  S
C974        C975   1.367   1_554  D
C975       C1396   1.537       .  S
C975       C1035   1.495   1_556  S
C976       C1395   1.537       .  S
C976        C980   1.547       .  S
C976        C978   1.548       .  S
C976        H982   1.105       .  S
C977        H983   1.081       .  S
C977        C978   1.380       .  D
C978       C1215   1.504       .  S
C979        H984   1.086       .  S
C979        C980   1.364       .  D
C980       C1025   1.501       .  S
C985        C986   1.535       .  S
C985        C991   1.540       .  S
C985        C989   1.541       .  S
C985       C1135   1.523       .  S
C986       H2673   1.081       .  S
C986        C987   1.358       .  D
C987        C988   1.522       .  S
C987       C2775   1.468       .  S
C988        C992   1.522       .  S
C988        C990   1.530       .  S
C988        H994   1.109       .  S
C989        H995   1.085       .  S
C989        C990   1.373       .  D
C990       C1125   1.476       .  S
C991        H996   1.086       .  S
C991        C992   1.366       .  D
C992       C1085   1.465       .  S
H993       C2666   1.081       .  S
C997        C998   1.517       .  S
C997       C1003   1.528       .  S
C997       C1001   1.544       .  S
C997       C1185   1.511       .  S
C998       H1005   1.088       .  S
C998        C999   1.353       .  D
C999       C1000   1.545       .  S
C999       C1045   1.474       .  S
C1000      C1004   1.552       .  S
C1000      C1002   1.561       .  S
C1000      H1006   1.107       .  S
C1001      H1007   1.080       .  S
C1001      C1002   1.380       .  D
C1002      C1195   1.511       .  S
C1003      H1428   1.087       .  S
C1003      C1004   1.357       .  D
C1004      C1475   1.484       .  S
H1008      C1423   1.087   1_554  S
C1009      C1010   1.540       .  S
C1009      C1015   1.538       .  S
C1009      C1075   1.552       .  S
C1010      H1017   1.085       .  S
C1011      C1012   1.543   1_545  S
C1011      C1155   1.508   1_545  S
C1012      C1016   1.545       .  S
C1012      C1014   1.545       .  S
C1012      H1018   1.105       .  S
C1013      H1019   1.082       .  S
C1013      C1014   1.382       .  D
C1014      C1062   1.499       .  S
C1015      H1020   1.086       .  S
C1016      C1145   1.503       .  S
C1021      C1022   1.407       .  A
C1021      C1026   1.407       .  A
C1021      H1027   1.084       .  S
C1022      C1023   1.404       .  A
C1023      C1024   1.405       .  A
C1023      H1028   1.084       .  S
C1024      C1025   1.410       .  A
C1024      H1029   1.083       .  S
C1025      C1026   1.405       .  A
C1026      H1030   1.083       .  S
C1031      C1032   1.404       .  A
C1031      C1036   1.399       .  A
C1031      H1037   1.084       .  S
C1032      C1033   1.401       .  A
C1033      C1034   1.404       .  A
C1033      H1038   1.083       .  S
C1034      C1035   1.411       .  A
C1034      H1039   1.081       .  S
C1035      C1036   1.405       .  A
C1036      H1040   1.083       .  S
C1041      C1042   1.412       .  A
C1041      C1046   1.397       .  A
C1041      H1047   1.083       .  S
C1042      C1043   1.400       .  A
C1043      C1044   1.400       .  A
C1043      H1048   1.083       .  S
C1044      C1045   1.410       .  A
C1044      H1049   1.084       .  S
C1045      C1046   1.397       .  A
C1046      H1050   1.084       .  S
C1051      C1052   1.402       .  A
C1051      C1056   1.404       .  A
C1051      H1057   1.083       .  S
C1052      C1053   1.413       .  A
C1053      C1054   1.395       .  A
C1053      H1058   1.083       .  S
C1054      C1055   1.396       .  A
C1054      H1059   1.082       .  S
C1055      C1424   1.484       .  S
C1055      C1056   1.412       .  A
C1056      H1060   1.083       .  S
C1061      C1062   1.411       .  A
C1061      C1066   1.407       .  A
C1061      H1067   1.082       .  S
C1062      C1063   1.408       .  A
C1063      C1064   1.394       .  A
C1063      H1068   1.080       .  S
C1064      C1065   1.401       .  A
C1064      H1069   1.084       .  S
C1065      C1066   1.404       .  A
C1066      H1070   1.083       .  S
C1071      C1072   1.412       .  A
C1071      C1076   1.421       .  A
C1071      H1077   1.083       .  S
C1072      C1073   1.409       .  A
C1073      C1074   1.398       .  A
C1073      H1078   1.083       .  S
C1074      C1075   1.407       .  A
C1074      H1079   1.083       .  S
C1075      C1076   1.418       .  A
C1076      H1080   1.079       .  S
C1081      C1082   1.402       .  A
C1081      C1086   1.391       .  A
C1081      H1087   1.084       .  S
C1082      C1083   1.397       .  A
C1083      C1084   1.390       .  A
C1083      H1088   1.084       .  S
C1084      C1085   1.406       .  A
C1084      H1089   1.083       .  S
C1085      C1086   1.398       .  A
C1086      H1090   1.083       .  S
C1091      C1092   1.399       .  A
C1091      C1096   1.386       .  A
C1091      H1097   1.084       .  S
C1092      C1093   1.400       .  A
C1093      C1094   1.399       .  A
C1093      H1098   1.083       .  S
C1094      C1095   1.405       .  A
C1094      H1099   1.082       .  S
C1095      C2667   1.468       .  S
C1095      C1096   1.400       .  A
C1096      H1100   1.083       .  S
C1101      C1102   1.413       .  A
C1101      C1106   1.408       .  A
C1101      H1107   1.081       .  S
C1102      C1103   1.406       .  A
C1103      C1104   1.393       .  A
C1103      H1108   1.077       .  S
C1104      C1105   1.406       .  A
C1104      H1109   1.083       .  S
C1105      C1106   1.406       .  A
C1106      H1110   1.083       .  S
C1111      C1112   1.413       .  A
C1111      C1116   1.387       .  A
C1111      H1117   1.084       .  S
C1112      C1113   1.404       .  A
C1113      C1114   1.396       .  A
C1113      H1118   1.079       .  S
C1114      C1115   1.404       .  A
C1114      H1119   1.084       .  S
C1115      C1116   1.391       .  A
C1116      H1120   1.084       .  S
C1121      C1122   1.397       .  A
C1121      C1126   1.387       .  A
C1121      H1127   1.084       .  S
C1122      C1123   1.401       .  A
C1123      C1124   1.396       .  A
C1123      H1128   1.084       .  S
C1124      C1125   1.406       .  A
C1124      H1129   1.082       .  S
C1125      C1126   1.404       .  A
C1126      H1130   1.081       .  S
C1131      C1132   1.400       .  A
C1131      C1136   1.400       .  A
C1131      H1137   1.083       .  S
C1132      C1133   1.401       .  A
C1133      C1134   1.388       .  A
C1133      H2818   1.084       .  S
C1134      C1135   1.407       .  A
C1134      H2819   1.077       .  S
C1135      C1136   1.412       .  A
C1136      H1140   1.083       .  S
H1138      C2813   1.084       .  S
H1139      C2814   1.077       .  S
C1141      C1142   1.404       .  A
C1141      C1146   1.405       .  A
C1142      C1143   1.408       .  A
C1143      C1144   1.408       .  A
C1143      H1148   1.084       .  S
C1144      C1145   1.406       .  A
C1144      H1149   1.083       .  S
C1145      C1146   1.410       .  A
C1151      C1152   1.402       .  A
C1151      C1156   1.408       .  A
C1151      H1157   1.083       .  S
C1152      C1153   1.404   1_565  A
C1153      C1154   1.399       .  A
C1153      H1158   1.084       .  S
C1154      C1155   1.408   1_545  A
C1154      H1159   1.082       .  S
C1155      C1156   1.415       .  A
C1156      H1160   1.081       .  S
C1161      H1587   1.083   1_554  S
C1162      C1163   1.408       .  A
C1163      C1164   1.394       .  A
C1163      H1168   1.083       .  S
C1164      C1165   1.399       .  A
C1164      H1169   1.084       .  S
C1165      C1166   1.403       .  A
H1167      C1581   1.083       .  S
C1171      C1172   1.401       .  A
C1171      C1176   1.402       .  A
C1171      H1177   1.083       .  S
C1173      C1174   1.391       .  A
C1173      H1178   1.084       .  S
C1174      H1179   1.081       .  S
C1175      C1176   1.409       .  A
C1176      H1180   1.083       .  S
C1181      C1182   1.389       .  A
C1181      C1186   1.384       .  A
C1181      H1187   1.084       .  S
C1182      C1183   1.404       .  A
C1183      C1184   1.398       .  A
C1183      H1188   1.084       .  S
C1184      C1185   1.406       .  A
C1184      H1189   1.079       .  S
C1185      C1186   1.411       .  A
C1186      H1190   1.084       .  S
C1191      C1192   1.409       .  A
C1191      C1196   1.400       .  A
C1191      H1197   1.083       .  S
C1192      C1193   1.405       .  A
C1193      C1194   1.406       .  A
C1193      H1198   1.083       .  S
C1194      C1195   1.415       .  A
C1194      H1199   1.080       .  S
C1195      C1196   1.407       .  A
C1196      H1200   1.078       .  S
C1201      C1202   1.408       .  A
C1201      C1206   1.412       .  A
C1201      H2887   1.083       .  S
C1202      C1203   1.408       .  A
C1203      C1204   1.394       .  A
C1203      H1208   1.083       .  S
C1204      C1205   1.407       .  A
C1204      H1209   1.084       .  S
C1205      C1206   1.414       .  A
C1206      H1210   1.078       .  S
H1207      C2881   1.083       .  S
C1211      C1632   1.404       .  A
C1211      C1216   1.409       .  A
C1211      H1217   1.083       .  S
C1212      C1631   1.404       .  A
C1212      C1213   1.400   1_554  A
C1213      C1634   1.392       .  A
C1213      H1218   1.084       .  S
C1214      C1633   1.392       .  A
C1214      C1215   1.407       .  A
C1214      H1219   1.078       .  S
C1215      C1216   1.414       .  A
C1216      H1220   1.081       .  S
C1221      C2902   1.400       .  A
C1221      C1226   1.403       .  A
C1221      H1227   1.082       .  S
C1222      C2901   1.400       .  A
C1222      C1223   1.421       .  A
C1223      C1224   1.412       .  A
C1223      H1228   1.081       .  S
C1224      C1225   1.403       .  A
C1224      H1229   1.083       .  S
C1225      C2906   1.419       .  A
C1226      C2905   1.419       .  A
C1226      H1230   1.083       .  S
C1231      C1232   1.410       .  A
C1231      C1236   1.393       .  A
C1231      H1237   1.078       .  S
C1232      C2913   1.409       .  A
C1233      C2912   1.409       .  A
C1233      C1234   1.388   1_655  A
C1233      H1238   1.083       .  S
C1234      C2915   1.396       .  A
C1234      H1239   1.084   1_455  S
C1235      C2914   1.396       .  A
C1235      C1236   1.400       .  A
C1236      H1240   1.084       .  S
C1241      C1242   1.399       .  A
C1241      C1246   1.404       .  A
C1241      H1247   1.083       .  S
C1242      C1243   1.414       .  A
C1243      C1244   1.408       .  A
C1243      H1248   1.083       .  S
C1244      C1245   1.403       .  A
C1244      H1249   1.083       .  S
C1245      C1246   1.415       .  A
C1246      H1250   1.083       .  S
C1251      C1252   1.398       .  A
C1251      C1256   1.392       .  A
C1251      H1257   1.084       .  S
C1252      C1253   1.408       .  A
C1253      C1254   1.398       .  A
C1253      H1258   1.084       .  S
C1254      C1255   1.399       .  A
C1254      H1259   1.084       .  S
C1255      C1256   1.406       .  A
C1256      H1260   1.084       .  S
C1261      C1262   1.533       .  S
C1261      C2947   1.510       .  S
C1261      C1265   1.538       .  S
C1261      C1652   1.509       .  S
C1262      H1269   1.086       .  S
C1262      C1263   1.370       .  D
C1263      C2944   1.564       .  S
C1263      C1662   1.499       .  S
C1264      C2943   1.564       .  S
C1264      C1268   1.542   1_655  S
C1264      C2946   1.568       .  S
C1264      H1270   1.109       .  S
C1265      H1271   1.081       .  S
C1265      C1266   1.370       .  D
C1266      C2944   1.568       .  S
C1266      C1642   1.513       .  S
C1267      C2941   1.510   1_455  S
C1267      H1272   1.090       .  S
C1267      C1268   1.345       .  D
C1268      C1672   1.459       .  S
O1273     Eu1309   2.477       .  S
O1273      C2964   1.292       .  A
O1274      C1285   1.295       .  A
O1275      C1286   1.289       .  A
O1276     Eu1281   2.451       .  S
O1276      C1287   1.288       .  A
O1277      C1287   1.285       .  A
O1278     Eu1310   2.432       .  S
O1278      C1286   1.288       .  A
O1279      C1285   1.287       .  A
O1280     Eu1281   2.368       .  S
O1280      C1284   1.277       .  A
Eu1281     O1291   2.350       .  S
Eu1281     O1282   2.327       .  S
O1283     Eu2149   2.343   1_565  S
O1283     Eu1310   2.325       .  S
C1284      O2953   1.292       .  A
C1284      C1655   1.440       .  S
C1285      C1572   1.481       .  S
C1286      C1552   1.468       .  S
C1287      C1602   1.446       .  S
H1288      O1289   0.965       .  S
O1289     Eu1310   2.365       .  S
H1290      O1291   0.964       .  S
O1291     Eu2989   2.335       .  S
O1292     Eu1308   2.460       .  S
O1292      C1315   1.289       .  A
O1293     Eu1309   2.469       .  S
O1294     Eu1310   2.495       .  S
O1294      C1317   1.298       .  A
O1295     Eu1311   2.504       .  S
O1295      C1318   1.299       .  A
O1296     Eu1311   2.509       .  S
O1296      C2579   1.299       .  A
O1297     Eu2990   2.534   1_455  S
O1297      C1320   1.303       .  A
O1298     Eu1312   2.521       .  S
O1298      C1321   1.301       .  A
O1299      C3002   1.310   1_455  A
O1300     Eu2990   2.404   1_455  S
O1301     Eu1311   2.408       .  S
O1301      C1322   1.283       .  A
O1302      C1317   1.291       .  A
O1303      C1320   1.283       .  A
O1304     Eu1309   2.434       .  S
O1304      C1319   1.288       .  A
O1305     Eu1308   2.399       .  S
O1306     Eu2992   2.407       .  S
O1306      C1315   1.284       .  A
O1307     Eu1312   2.442       .  S
Eu1308     O1326   2.373       .  S
Eu1309     O2123   2.343       .  S
Eu1309     O2971   2.335   1_455  S
Eu1310     O2977   2.534       .  S
Eu1310     O2980   2.404       .  S
Eu1310     O3004   2.342       .  S
Eu1310     O1314   2.361   1_556  S
Eu1311     O2993   2.372       .  S
Eu1312     O2986   2.407   1_455  S
Eu1312     O3006   2.348   1_455  S
Eu1312     O2574   2.370   1_455  S
O1313     Eu2991   2.372   1_455  S
O1314     Eu2572   2.370       .  S
C1315      C1542   1.446       .  S
C1316      C1582   1.479       .  S
C1317      C1612   1.496       .  S
C1318      C1592   1.471       .  S
C1319      O2556   1.299   1_456  A
C1319      C1622   1.497       .  S
C1320      C1562   1.482       .  S
C1321      C1632   1.471       .  S
C1322      O2979   1.310       .  A
C1322      C1645   1.509       .  S
H1323      O1324   0.963       .  S
O1324     Eu2990   2.341   1_455  S
H1325      O1326   0.965       .  S
O1326     Eu2992   2.348       .  S
C1327      C1328   1.518       .  S
C1327      C1333   1.528       .  S
C1327      C1331   1.552       .  S
C1327      C1532   1.512       .  S
C1328      H1335   1.088       .  S
C1328      C1329   1.355       .  D
C1329      C1585   1.463       .  S
C1330      C1332   1.551       .  S
C1330      H1336   1.107       .  S
C1331      H1337   1.082       .  S
C1332      C1522   1.504       .  S
C1333      H1338   1.087       .  S
C1333      C1334   1.356       .  D
C1334      C1595   1.475       .  S
O1339     Eu1375   2.525       .  S
O1339      C1350   1.302       .  A
O1340     Eu1374   2.484       .  S
O1340      C1351   1.292       .  A
O1341     Eu1347   2.440       .  S
O1341      C1352   1.286       .  A
O1342     Eu1347   2.451       .  S
O1342      C1353   1.287       .  A
O1343     Eu1377   2.420       .  S
O1343      C1353   1.285       .  A
O1344     Eu1376   2.427       .  S
O1344      C1352   1.287       .  A
O1345     Eu1347   2.442       .  S
O1345      C1351   1.286       .  A
O1346     Eu1347   2.355       .  S
O1346      C1350   1.274       .  A
Eu1347     O1357   2.357       .  S
Eu1347     O1349   2.353       .  S
Eu1347     O1348   2.319       .  S
Eu1347     O1355   2.342       .  S
O1348     Eu1377   2.361       .  S
O1348     Eu1374   2.350       .  S
O1349     Eu1375   2.346       .  S
O1349     Eu1376   2.333       .  S
C1350      C1675   1.456       .  S
C1351      C1452   1.475       .  S
C1352      C1512   1.452       .  S
C1353      C1535   1.447       .  S
H1354      O1355   0.964       .  S
O1355     Eu1376   2.371       .  S
O1355     Eu1374   2.352       .  S
H1356      O1357   0.966       .  S
O1357     Eu1375   2.341       .  S
O1357     Eu1377   2.344       .  S
O1358     Eu1374   2.456       .  S
O1358      C1381   1.288       .  A
O1359     Eu1375   2.507       .  S
O1359      C1382   1.299       .  A
O1360     Eu1376   2.496       .  S
O1360      C1383   1.297       .  A
O1361     Eu1377   2.523       .  S
O1361      C1384   1.303       .  A
O1362     Eu1377   2.533       .  S
O1362      C1385   1.303       .  A
O1363     Eu1376   2.531       .  S
O1363      C1386   1.302       .  A
O1364     Eu1378   2.516       .  S
O1364      C1387   1.300       .  A
O1365     Eu1378   2.535       .  S
O1365      C1388   1.304       .  A
O1366     Eu1376   2.404       .  S
O1366      C1387   1.283       .  A
O1367     Eu1377   2.425       .  S
O1367      C1388   1.286       .  A
O1368     Eu1374   2.436       .  S
O1368      C1383   1.289       .  A
O1369     Eu1375   2.427       .  S
O1369      C1386   1.285       .  A
O1370     Eu1375   2.452       .  S
O1370      C1385   1.292       .  A
O1371     Eu1374   2.398       .  S
O1371      C1384   1.282       .  A
O1372     Eu1378   2.399       .  S
O1372      C1381   1.282       .  A
O1373     Eu1378   2.425       .  S
O1373      C1382   1.287       .  A
Eu1374     O1392   2.361       .  S
Eu1374     O1380   2.345       .  S
Eu1375     O1379   2.370       .  S
Eu1375     O1390   2.352       .  S
Eu1376     O1390   2.342       .  S
Eu1376     O1380   2.356       .  S
Eu1377     O1379   2.369       .  S
Eu1377     O1392   2.354       .  S
Eu1378     O1379   2.362       .  S
Eu1378     O1390   2.350       .  S
Eu1378     O1392   2.346       .  S
Eu1378     O1380   2.353       .  S
C1381      C1502   1.441       .  S
C1382      C1462   1.481       .  S
C1383      C1525   1.491       .  S
C1384      C1472   1.484       .  S
C1385      C1492   1.511       .  S
C1386      C1442   1.482       .  S
C1387      C1485   1.470       .  S
C1388      C1665   1.497       .  S
H1389      O1390   0.963       .  S
H1391      O1392   0.963       .  S
C1393      C1399   1.535       .  S
C1393      C1397   1.553       .  S
C1393      C1625   1.539       .  S
C1394      H1401   1.086       .  S
C1394      C1395   1.367       .  D
C1395      C1455   1.495       .  S
C1396      C1400   1.547       .  S
C1396      C1398   1.548       .  S
C1396      H1402   1.105       .  S
C1397      H1403   1.081   1_556  S
C1397      C1398   1.380       .  D
C1398      C1635   1.504   1_556  S
C1399      H1404   1.086       .  S
C1399      C1400   1.364       .  D
C1400      C1445   1.501       .  S
C1405      C1406   1.535       .  S
C1405      C1411   1.540       .  S
C1405      C1409   1.541       .  S
C1405      C1555   1.523       .  S
C1406      H3093   1.081       .  S
C1406      C1407   1.358       .  D
C1407      C1408   1.522       .  S
C1407      C3195   1.468       .  S
C1408      C1412   1.522       .  S
C1408      C1410   1.530       .  S
C1408      H1414   1.109       .  S
C1409      H1415   1.085       .  S
C1409      C1410   1.373       .  D
C1410      C1545   1.476       .  S
C1411      H1416   1.086       .  S
C1411      C1412   1.366       .  D
C1412      C1505   1.465       .  S
H1413      C3086   1.081       .  S
C1417      C1418   1.517       .  S
C1417      C1423   1.528       .  S
C1417      C1421   1.544       .  S
C1417      C1605   1.511       .  S
C1418      H1425   1.088       .  S
C1418      C1419   1.353       .  D
C1419      C1420   1.545       .  S
C1419      C1465   1.474       .  S
C1420      C1424   1.552   1_556  S
C1420      C1422   1.561       .  S
C1420      H1426   1.107       .  S
C1421      H1427   1.080       .  S
C1421      C1422   1.380       .  D
C1422      C1615   1.511       .  S
C1423      C1424   1.357   1_556  D
C1429      C1430   1.540       .  S
C1429      C1435   1.538       .  S
C1429      C1495   1.552       .  S
C1430      H1437   1.085       .  S
C1431      C1432   1.543   1_545  S
C1431      C1575   1.508   1_545  S
C1432      C1436   1.545       .  S
C1432      C1434   1.545       .  S
C1432      H1438   1.105       .  S
C1433      H1439   1.082       .  S
C1433      C1434   1.382       .  D
C1434      C1482   1.499       .  S
C1435      H1440   1.086       .  S
C1436      C1565   1.503       .  S
C1441      C1442   1.407       .  A
C1441      C1446   1.407       .  A
C1441      H1447   1.084       .  S
C1442      C1443   1.404       .  A
C1443      C1444   1.405       .  A
C1443      H1448   1.084       .  S
C1444      C1445   1.410       .  A
C1444      H1449   1.083       .  S
C1445      C1446   1.405       .  A
C1446      H1450   1.083       .  S
C1451      C1452   1.404       .  A
C1451      C1456   1.400       .  A
C1451      H1457   1.084       .  S
C1452      C1453   1.401       .  A
C1453      C1454   1.404       .  A
C1453      H1458   1.083       .  S
C1454      C1455   1.411       .  A
C1454      H1459   1.081       .  S
C1455      C1456   1.405       .  A
C1456      H1460   1.083       .  S
C1461      C1462   1.412       .  A
C1461      C1466   1.397       .  A
C1461      H1467   1.083       .  S
C1462      C1463   1.400       .  A
C1463      C1464   1.400       .  A
C1463      H1468   1.083       .  S
C1464      C1465   1.410       .  A
C1464      H1469   1.084       .  S
C1465      C1466   1.397       .  A
C1466      H1470   1.084       .  S
C1471      C1472   1.402       .  A
C1471      C1476   1.404       .  A
C1471      H1477   1.083       .  S
C1472      C1473   1.413       .  A
C1473      C1474   1.395       .  A
C1473      H1478   1.083       .  S
C1474      C1475   1.396       .  A
C1474      H1479   1.082       .  S
C1475      C1476   1.412       .  A
C1476      H1480   1.083       .  S
C1481      C1482   1.411       .  A
C1481      C1486   1.407       .  A
C1481      H1487   1.082       .  S
C1482      C1483   1.408       .  A
C1483      C1484   1.394       .  A
C1483      H1488   1.080       .  S
C1484      C1485   1.401       .  A
C1484      H1489   1.084       .  S
C1485      C1486   1.404       .  A
C1486      H1490   1.083       .  S
C1491      C1492   1.412       .  A
C1491      C1496   1.421       .  A
C1491      H1497   1.083       .  S
C1492      C1493   1.409       .  A
C1493      C1494   1.398       .  A
C1493      H1498   1.083       .  S
C1494      C1495   1.407       .  A
C1494      H1499   1.083       .  S
C1495      C1496   1.418       .  A
C1496      H1500   1.079       .  S
C1501      C1502   1.402       .  A
C1501      C1506   1.391       .  A
C1501      H1507   1.084       .  S
C1502      C1503   1.397       .  A
C1503      C1504   1.390       .  A
C1503      H1508   1.084       .  S
C1504      C1505   1.406       .  A
C1504      H1509   1.083       .  S
C1505      C1506   1.398       .  A
C1506      H1510   1.083       .  S
C1511      C1512   1.399       .  A
C1511      C1516   1.386       .  A
C1511      H1517   1.084       .  S
C1512      C1513   1.400       .  A
C1513      C1514   1.399       .  A
C1513      H1518   1.083       .  S
C1514      C1515   1.405       .  A
C1514      H1519   1.082       .  S
C1515      C3087   1.468       .  S
C1515      C1516   1.400       .  A
C1516      H1520   1.083       .  S
C1521      C1522   1.413       .  A
C1521      C1526   1.408       .  A
C1521      H1527   1.081       .  S
C1522      C1523   1.406       .  A
C1523      C1524   1.393       .  A
C1523      H1528   1.077       .  S
C1524      C1525   1.406       .  A
C1524      H1529   1.083       .  S
C1525      C1526   1.406       .  A
C1526      H1530   1.083       .  S
C1531      C1532   1.413       .  A
C1531      C1536   1.387       .  A
C1531      H1537   1.084       .  S
C1532      C1533   1.404       .  A
C1533      C1534   1.396       .  A
C1533      H1538   1.079       .  S
C1534      C1535   1.404       .  A
C1534      H1539   1.084       .  S
C1535      C1536   1.391       .  A
C1536      H1540   1.084       .  S
C1541      C1542   1.397       .  A
C1541      C1546   1.387       .  A
C1541      H1547   1.084       .  S
C1542      C1543   1.401       .  A
C1543      C1544   1.396       .  A
C1543      H1548   1.084       .  S
C1544      C1545   1.406       .  A
C1544      H1549   1.082       .  S
C1545      C1546   1.404       .  A
C1546      H1550   1.081       .  S
C1551      C1552   1.400       .  A
C1551      C1556   1.400       .  A
C1551      H1557   1.083       .  S
C1552      C1553   1.401       .  A
C1553      C1554   1.388       .  A
C1553      H3238   1.084       .  S
C1554      C1555   1.407       .  A
C1554      H3239   1.077       .  S
C1555      C1556   1.412       .  A
C1556      H1560   1.083       .  S
H1558      C3233   1.084       .  S
H1559      C3234   1.077       .  S
C1561      C1562   1.404       .  A
C1561      C1566   1.405       .  A
C1562      C1563   1.408       .  A
C1563      C1564   1.408       .  A
C1563      H1568   1.084       .  S
C1564      C1565   1.406       .  A
C1564      H1569   1.083       .  S
C1565      C1566   1.410       .  A
C1571      C1572   1.402       .  A
C1571      C1576   1.408       .  A
C1571      H1577   1.083       .  S
C1572      C1573   1.404   1_565  A
C1573      C1574   1.399       .  A
C1573      H1578   1.084       .  S
C1574      C1575   1.408   1_545  A
C1574      H1579   1.082       .  S
C1575      C1576   1.415       .  A
C1576      H1580   1.081       .  S
C1582      C1583   1.408       .  A
C1583      C1584   1.394       .  A
C1583      H1588   1.083       .  S
C1584      C1585   1.399       .  A
C1584      H1589   1.084       .  S
C1585      C1586   1.403       .  A
C1591      C1592   1.401       .  A
C1591      C1596   1.402       .  A
C1591      H1597   1.083       .  S
C1593      C1594   1.391       .  A
C1593      H1598   1.084       .  S
C1594      H1599   1.081       .  S
C1595      C1596   1.409       .  A
C1596      H1600   1.083       .  S
C1601      C1602   1.389       .  A
C1601      C1606   1.384       .  A
C1601      H1607   1.084       .  S
C1602      C1603   1.404       .  A
C1603      C1604   1.398       .  A
C1603      H1608   1.084       .  S
C1604      C1605   1.406       .  A
C1604      H1609   1.079       .  S
C1605      C1606   1.411       .  A
C1606      H1610   1.084       .  S
C1611      C1612   1.409       .  A
C1611      C1616   1.400       .  A
C1611      H1617   1.083       .  S
C1612      C1613   1.405       .  A
C1613      C1614   1.406       .  A
C1613      H1618   1.083       .  S
C1614      C1615   1.415       .  A
C1614      H1619   1.080       .  S
C1615      C1616   1.407       .  A
C1616      H1620   1.078       .  S
C1621      C1622   1.408   1_554  A
C1621      C1626   1.412       .  A
C1621      H3307   1.083       .  S
C1622      C1623   1.408       .  A
C1623      C1624   1.394       .  A
C1623      H1628   1.083       .  S
C1624      C1625   1.407       .  A
C1624      H1629   1.084       .  S
C1625      C1626   1.414   1_556  A
C1626      H1630   1.078       .  S
H1627      C3301   1.083       .  S
C1631      C1636   1.409       .  A
C1631      H1637   1.083       .  S
C1632      C1633   1.400       .  A
C1633      H1638   1.084       .  S
C1634      C1635   1.407   1_556  A
C1634      H1639   1.078       .  S
C1635      C1636   1.414       .  A
C1636      H1640   1.081       .  S
C1641      C3322   1.400       .  A
C1641      C1646   1.403       .  A
C1641      H1647   1.082       .  S
C1642      C3321   1.400       .  A
C1642      C1643   1.421       .  A
C1643      C1644   1.412       .  A
C1643      H1648   1.081       .  S
C1644      C1645   1.403       .  A
C1644      H1649   1.083       .  S
C1645      C3326   1.419       .  A
C1646      C3325   1.419       .  A
C1646      H1650   1.083       .  S
C1651      C1652   1.409       .  A
C1651      C1656   1.393       .  A
C1651      H1657   1.078       .  S
C1652      C3333   1.409       .  A
C1653      C3332   1.409       .  A
C1653      C1654   1.388   1_655  A
C1653      H1658   1.083       .  S
C1654      C3335   1.396       .  A
C1654      H1659   1.084   1_455  S
C1655      C3334   1.396       .  A
C1655      C1656   1.400       .  A
C1656      H1660   1.084       .  S
C1661      C1662   1.399       .  A
C1661      C1666   1.404       .  A
C1661      H1667   1.083       .  S
C1662      C1663   1.414       .  A
C1663      C1664   1.408       .  A
C1663      H1668   1.083       .  S
C1664      C1665   1.403       .  A
C1664      H1669   1.083       .  S
C1665      C1666   1.415       .  A
C1666      H1670   1.083       .  S
C1671      C1672   1.398       .  A
C1671      C1676   1.392       .  A
C1671      H1677   1.084       .  S
C1672      C1673   1.408       .  A
C1673      C1674   1.398       .  A
C1673      H1678   1.084       .  S
C1674      C1675   1.399       .  A
C1674      H1679   1.084       .  S
C1675      C1676   1.406       .  A
C1676      H1680   1.084       .  S
C1681      C1682   1.532       .  S
C1681      C1685   1.538       .  S
C1681      C2072   1.509       .  S
C1682      H1689   1.086       .  S
C1682      C1683   1.370       .  D
C1683      C2082   1.498       .  S
C1684      C1688   1.542       .  S
C1684      H1690   1.109       .  S
C1685      H1691   1.081       .  S
C1685      C1686   1.371       .  D
C1686      C2062   1.512       .  S
C1687      H1692   1.090       .  S
C1687      C1688   1.345       .  D
C1688      C2092   1.459       .  S
O1693     Eu1729   2.476       .  S
O1694     Eu2148   2.493       .  S
O1694      C1705   1.295       .  A
O1695     Eu2541   2.456       .  S
O1695      C1706   1.290       .  A
O1696     Eu1701   2.450       .  S
O1696      C1707   1.287       .  A
O1697     Eu2151   2.421       .  S
O1697      C1707   1.285       .  A
O1698     Eu1730   2.432       .  S
O1698      C1706   1.288       .  A
O1699     Eu2541   2.442       .  S
O1699      C1705   1.288       .  A
O1700     Eu1701   2.367       .  S
O1700      C1704   1.276   1_655  A
Eu1701     O2535   2.455   1_545  S
Eu1701     O2539   2.438   1_545  S
Eu1701     O1711   2.349       .  S
Eu1701     O2543   2.343   1_645  S
Eu1701     O1702   2.327       .  S
Eu1701     O2549   2.341   1_545  S
O1702     Eu2151   2.357       .  S
O1702     Eu2988   2.349   1_545  S
O1703     Eu2541   2.343   1_455  S
O1703     Eu1730   2.325   1_455  S
C1704      C2075   1.439       .  S
C1705      C1992   1.482       .  S
C1706      C1972   1.468       .  S
C1707      C2022   1.446       .  S
H1708      O1709   0.965       .  S
O1709     Eu2541   2.342       .  S
O1709     Eu1730   2.365       .  S
O1709     Eu2148   2.352       .  S
H1710      O1711   0.964       .  S
O1711     Eu2151   2.332       .  S
O1712     Eu1728   2.461       .  S
O1712      C1735   1.290       .  A
O1713     Eu1729   2.467       .  S
O1713      C2156   1.293   1_545  A
O1714     Eu1730   2.496       .  S
O1714      C1737   1.298       .  A
O1715     Eu1731   2.505       .  S
O1715      C1738   1.299       .  A
O1716     Eu1731   2.510       .  S
O1717      C1740   1.303       .  A
O1718     Eu1732   2.516       .  S
O1718      C1741   1.300       .  A
O1719     Eu2572   2.566   1_545  S
O1720      C2161   1.284       .  A
O1721     Eu1731   2.407       .  S
O1721      C1742   1.283       .  A
O1722     Eu2148   2.451       .  S
O1722      C1737   1.291       .  A
O1723     Eu2569   2.412       .  S
O1723      C1740   1.282       .  A
O1724     Eu1729   2.435       .  S
O1724      C1739   1.289       .  A
O1725     Eu1728   2.399       .  S
O1725      C2578   1.282       .  A
O1726      C1735   1.284       .  A
O1727     Eu1732   2.446       .  S
O1727      C2576   1.290       .  A
Eu1728     O2114   2.493   1_554  S
Eu1728     O2142   2.451   1_554  S
Eu1728     O2962   2.349   1_554  S
Eu1728     O2129   2.352   1_554  S
Eu1728     O1746   2.374       .  S
Eu1728     O2154   2.346       .  S
Eu1729     O2563   2.414   1_545  S
Eu1729     O2153   2.365       .  S
Eu1729     O2584   2.338   1_545  S
Eu1730     O1734   2.361       .  S
Eu1731     O2117   2.421   1_554  S
Eu1731     O2122   2.357   1_554  S
Eu1731     O2131   2.332   1_554  S
Eu1731     O2586   2.356   1_545  S
Eu1732     O2559   2.566       .  S
Eu1732     O2573   2.364       .  S
Eu1732     O2164   2.356   1_554  S
O1733     Eu2149   2.365   1_554  S
O1733     Eu2572   2.365   1_545  S
O1734     Eu2148   2.346       .  S
C1735      C1962   1.446       .  S
C1736      O2133   1.293   1_564  A
C1736      O2567   1.290       .  A
C1736      C2002   1.477       .  S
C1737      C2032   1.496       .  S
C1738      O2565   1.282   1_545  A
C1738      C2012   1.471       .  S
C1739      C2042   1.498       .  S
C1740      C1982   1.481       .  S
C1741      O2140   1.284   1_554  A
C1741      C2052   1.469       .  S
C1742      C2065   1.509       .  S
H1743      O1744   0.963       .  S
O1744     Eu2569   2.337       .  S
O1744     Eu2152   2.356       .  S
H1745      O1746   0.965       .  S
O1746     Eu2571   2.357       .  S
C1747      C1748   1.518       .  S
C1747      C1753   1.528       .  S
C1747      C1751   1.552       .  S
C1747      C1952   1.512       .  S
C1748      H1755   1.088       .  S
C1748      C1749   1.355       .  D
C1749      C2590   1.533   1_545  S
C1749      C2005   1.462   1_545  S
C1750      C2589   1.534       .  S
C1750      C2594   1.544       .  S
C1750      C1752   1.551       .  S
C1750      H1756   1.107       .  S
C1751      H1757   1.081       .  S
C1751      C2592   1.379   1_545  D
C1752      C2591   1.379       .  D
C1752      C1942   1.503       .  S
C1753      H1758   1.087       .  S
C1753      C1754   1.356       .  D
C1754      C2590   1.544   1_545  S
C1754      C2015   1.475       .  S
O1759     Eu1795   2.526       .  S
O1759      C1770   1.302       .  A
O1760     Eu1794   2.484       .  S
O1760      C1771   1.292       .  A
O1761     Eu1767   2.438       .  S
O1761      C1772   1.286       .  A
O1762     Eu1767   2.450       .  S
O1762      C1773   1.287       .  A
O1763     Eu1797   2.422       .  S
O1763      C1773   1.285       .  A
O1764     Eu1796   2.425       .  S
O1764      C1772   1.287       .  A
O1765     Eu1767   2.445       .  S
O1765      C1771   1.287       .  A
O1766     Eu1767   2.357       .  S
O1766      C1770   1.274       .  A
Eu1767     O1777   2.358       .  S
Eu1767     O1769   2.353       .  S
Eu1767     O1768   2.319       .  S
Eu1767     O1775   2.343       .  S
O1768     Eu1797   2.361       .  S
O1768     Eu1794   2.353       .  S
O1769     Eu1795   2.346       .  S
O1769     Eu1796   2.330       .  S
C1770      C2095   1.457       .  S
C1771      C1872   1.477       .  S
C1772      C1932   1.451       .  S
C1773      C1955   1.447       .  S
H1774      O1775   0.964       .  S
O1775     Eu1796   2.372       .  S
O1775     Eu1794   2.352       .  S
H1776      O1777   0.966       .  S
O1777     Eu1795   2.345       .  S
O1777     Eu1797   2.343       .  S
O1778     Eu1794   2.457       .  S
O1778      C1801   1.288       .  A
O1779     Eu1795   2.513       .  S
O1779      C1802   1.300       .  A
O1780     Eu1796   2.494       .  S
O1780      C1803   1.297       .  A
O1781     Eu1797   2.523       .  S
O1781      C1804   1.302       .  A
O1782     Eu1797   2.531       .  S
O1782      C1805   1.303       .  A
O1783     Eu1796   2.529       .  S
O1783      C1806   1.302       .  A
O1784     Eu1798   2.520       .  S
O1784      C1807   1.300       .  A
O1785     Eu1798   2.538       .  S
O1785      C1808   1.305       .  A
O1786     Eu1796   2.401       .  S
O1786      C1807   1.282       .  A
O1787     Eu1797   2.421       .  S
O1787      C1808   1.286       .  A
O1788     Eu1794   2.439       .  S
O1788      C1803   1.289       .  A
O1789     Eu1795   2.432       .  S
O1789      C1806   1.286       .  A
O1790     Eu1795   2.456       .  S
O1790      C1805   1.293       .  A
O1791     Eu1794   2.399       .  S
O1791      C1804   1.282       .  A
O1792     Eu1798   2.396       .  S
O1792      C1801   1.281       .  A
O1793     Eu1798   2.423       .  S
O1793      C1802   1.287       .  A
Eu1794     O1812   2.362       .  S
Eu1794     O1800   2.345       .  S
Eu1795     O1799   2.370       .  S
Eu1795     O1810   2.350       .  S
Eu1796     O1810   2.343       .  S
Eu1796     O1800   2.356       .  S
Eu1797     O1799   2.371       .  S
Eu1797     O1812   2.355       .  S
Eu1798     O1799   2.362       .  S
Eu1798     O1810   2.349       .  S
Eu1798     O1812   2.346       .  S
Eu1798     O1800   2.353       .  S
C1801      C1922   1.440       .  S
C1802      C1882   1.483       .  S
C1803      C1945   1.491       .  S
C1804      C1892   1.483       .  S
C1805      C1912   1.512       .  S
C1806      C1862   1.483       .  S
C1807      C1905   1.471       .  S
C1808      C2085   1.497       .  S
H1809      O1810   0.963       .  S
H1811      O1812   0.963       .  S
C1813      C2234   1.539       .  S
C1813      C1819   1.535       .  S
C1813      C1817   1.552       .  S
C1813      C2045   1.540       .  S
C1814      C2233   1.539   1_554  S
C1814      H1821   1.086       .  S
C1814      C1815   1.368   1_554  D
C1815      C2236   1.537       .  S
C1815      C1875   1.496   1_556  S
C1816      C2235   1.537       .  S
C1816      C1820   1.548       .  S
C1816      C1818   1.548       .  S
C1816      H1822   1.104       .  S
C1817      H1823   1.081       .  S
C1817      C1818   1.379       .  D
C1818      C2055   1.503       .  S
C1819      H1824   1.086       .  S
C1819      C1820   1.365       .  D
C1820      C1865   1.502       .  S
C1825      C1826   1.534   1_655  S
C1825      C1831   1.540       .  S
C1825      C1829   1.541       .  S
C1825      C1975   1.523       .  S
C1826      C1827   1.358       .  D
C1827      C1828   1.522   1_455  S
C1828      C1832   1.522       .  S
C1828      C1830   1.530       .  S
C1828      H1834   1.108       .  S
C1829      H1835   1.085       .  S
C1829      C1830   1.373       .  D
C1830      C1965   1.476       .  S
C1831      H1836   1.086       .  S
C1831      C1832   1.366       .  D
C1832      C1925   1.466       .  S
C1837      C1838   1.518       .  S
C1837      C1843   1.528       .  S
C1837      C1841   1.545       .  S
C1837      C2025   1.511       .  S
C1838      H1845   1.088       .  S
C1838      C1839   1.353       .  D
C1839      C1840   1.546       .  S
C1839      C1885   1.474       .  S
C1840      C1844   1.552       .  S
C1840      C1842   1.559       .  S
C1840      H1846   1.107       .  S
C1841      H1847   1.080       .  S
C1841      C1842   1.379       .  D
C1842      C2035   1.509       .  S
C1843      H2268   1.087       .  S
C1843      C1844   1.357       .  D
C1844      C2315   1.484       .  S
H1848      C2263   1.087   1_554  S
C1849      C1850   1.540       .  S
C1849      C1855   1.538       .  S
C1849      C2693   1.552   1_545  S
C1849      C1915   1.552       .  S
C1850      H1857   1.085       .  S
C1850      C2691   1.372       .  D
C1851      C1852   1.542       .  S
C1851      C2690   1.372       .  D
C1851      C1995   1.508       .  S
C1852      C1856   1.545       .  S
C1852      C1854   1.545       .  S
C1852      H1858   1.105       .  S
C1853      C2689   1.553       .  S
C1853      H1859   1.082       .  S
C1853      C1854   1.381       .  D
C1854      C1902   1.499       .  S
C1855      H1860   1.086       .  S
C1855      C2696   1.367   1_545  D
C1856      C2695   1.367       .  D
C1856      C1985   1.503       .  S
C1861      C1862   1.407       .  A
C1861      C1866   1.407       .  A
C1861      H1867   1.083       .  S
C1862      C1863   1.404       .  A
C1863      C1864   1.405       .  A
C1863      H1868   1.084       .  S
C1864      C1865   1.411       .  A
C1864      H1869   1.083       .  S
C1865      C1866   1.406       .  A
C1866      H1870   1.083       .  S
C1871      C1872   1.404       .  A
C1871      C1876   1.400       .  A
C1871      H1877   1.084       .  S
C1872      C1873   1.402       .  A
C1873      C1874   1.404       .  A
C1873      H1878   1.083       .  S
C1874      C1875   1.411       .  A
C1874      H1879   1.081       .  S
C1875      C1876   1.405       .  A
C1876      H1880   1.083       .  S
C1881      C1882   1.412       .  A
C1881      C1886   1.397       .  A
C1881      H1887   1.083       .  S
C1882      C1883   1.401       .  A
C1883      C1884   1.400       .  A
C1883      H1888   1.083       .  S
C1884      C1885   1.410       .  A
C1884      H1889   1.083       .  S
C1885      C1886   1.397       .  A
C1886      H1890   1.084       .  S
C1891      C1892   1.402       .  A
C1891      C1896   1.404       .  A
C1891      H1897   1.083       .  S
C1892      C1893   1.413       .  A
C1893      C1894   1.395       .  A
C1893      H1898   1.083       .  S
C1894      C1895   1.396       .  A
C1894      H1899   1.082       .  S
C1895      C2264   1.484       .  S
C1895      C1896   1.411       .  A
C1896      H1900   1.083       .  S
C1901      C1902   1.411       .  A
C1901      C1906   1.407       .  A
C1901      H1907   1.082       .  S
C1902      C1903   1.408       .  A
C1903      C1904   1.394       .  A
C1903      H1908   1.080       .  S
C1904      C1905   1.401       .  A
C1904      H1909   1.084       .  S
C1905      C1906   1.404       .  A
C1906      H1910   1.083       .  S
C1911      C1912   1.412       .  A
C1911      C1916   1.421       .  A
C1911      H1917   1.083       .  S
C1912      C1913   1.409       .  A
C1913      C1914   1.398       .  A
C1913      H1918   1.083       .  S
C1914      C1915   1.407       .  A
C1914      H1919   1.083       .  S
C1915      C1916   1.418       .  A
C1916      H1920   1.079       .  S
C1921      C1922   1.402       .  A
C1921      C1926   1.391       .  A
C1921      H1927   1.084       .  S
C1922      C1923   1.397       .  A
C1923      C1924   1.389       .  A
C1923      H1928   1.084       .  S
C1924      C1925   1.406       .  A
C1924      H1929   1.083       .  S
C1925      C1926   1.399       .  A
C1926      H1930   1.083       .  S
C1931      C1932   1.399       .  A
C1931      C1936   1.385       .  A
C1931      H1937   1.084       .  S
C1932      C1933   1.400       .  A
C1933      C1934   1.398       .  A
C1933      H1938   1.083       .  S
C1934      C1935   1.405       .  A
C1934      H1939   1.082       .  S
C1935      C1936   1.400       .  A
C1936      H1940   1.083       .  S
C1941      C1942   1.412       .  A
C1941      C1946   1.408       .  A
C1941      H1947   1.081       .  S
C1942      C1943   1.406       .  A
C1943      C1944   1.393       .  A
C1943      H1948   1.077       .  S
C1944      C1945   1.406       .  A
C1944      H1949   1.083       .  S
C1945      C1946   1.407       .  A
C1946      H1950   1.083       .  S
C1951      C1952   1.413       .  A
C1951      C1956   1.387       .  A
C1951      H1957   1.084       .  S
C1952      C1953   1.404       .  A
C1953      C1954   1.396       .  A
C1953      H1958   1.079       .  S
C1954      C1955   1.404       .  A
C1954      H1959   1.084       .  S
C1955      C1956   1.391       .  A
C1956      H1960   1.084       .  S
C1961      C1962   1.397       .  A
C1961      C1966   1.387       .  A
C1961      H1967   1.084       .  S
C1962      C1963   1.401       .  A
C1963      C1964   1.396       .  A
C1963      H1968   1.084       .  S
C1964      C1965   1.406       .  A
C1964      H1969   1.082       .  S
C1965      C1966   1.404       .  A
C1966      H1970   1.081       .  S
C1971      C1972   1.400       .  A
C1971      C1976   1.400       .  A
C1971      H1977   1.083       .  S
C1972      C1973   1.401   1_655  A
C1973      C1974   1.388       .  A
C1974      C1975   1.408   1_455  A
C1975      C1976   1.412       .  A
C1976      H1980   1.083       .  S
C1981      C1982   1.403       .  A
C1981      C1986   1.404       .  A
C1981      H2827   1.084       .  S
C1982      C1983   1.408       .  A
C1983      C1984   1.408       .  A
C1983      H1988   1.084       .  S
C1984      C1985   1.406       .  A
C1984      H1989   1.083       .  S
C1985      C1986   1.410       .  A
C1986      H2830   1.083       .  S
H1987      C2821   1.084       .  S
H1990      C2826   1.083       .  S
C1991      C1992   1.402       .  A
C1991      C1996   1.408       .  A
C1991      H1997   1.083       .  S
C1992      C1993   1.404       .  A
C1993      C1994   1.399       .  A
C1993      H1998   1.084       .  S
C1994      C1995   1.408       .  A
C1994      H1999   1.082       .  S
C1995      C1996   1.415       .  A
C1996      H2000   1.081       .  S
C2001      C2842   1.405       .  A
C2001      C2846   1.396       .  A
C2001      H2427   1.083   1_554  S
C2002      C2841   1.405   1_565  A
C2002      C2003   1.408       .  A
C2003      C2004   1.394       .  A
C2003      H2008   1.083       .  S
C2004      C2005   1.399       .  A
C2004      H2009   1.084       .  S
C2005      C2006   1.403   1_565  A
C2006      C2841   1.395       .  A
C2006      H2850   1.083       .  S
H2007      C2421   1.083       .  S
H2010      C2846   1.084       .  S
C2011      C2012   1.401       .  A
C2011      C2016   1.402       .  A
C2011      H2017   1.083       .  S
C2012      C2853   1.408   1_545  A
C2013      C2852   1.408       .  A
C2013      C2014   1.391       .  A
C2013      H2018   1.084       .  S
C2014      C2855   1.395       .  A
C2014      H2019   1.080       .  S
C2015      C2854   1.395   1_545  A
C2015      C2016   1.409       .  A
C2016      H2020   1.083       .  S
C2021      C2022   1.390       .  A
C2021      C2026   1.384       .  A
C2021      H2027   1.084       .  S
C2022      C2023   1.403       .  A
C2023      C2024   1.397       .  A
C2023      H2028   1.084       .  S
C2024      C2025   1.405       .  A
C2024      H2029   1.079       .  S
C2025      C2026   1.412       .  A
C2026      H2030   1.084       .  S
C2031      C2032   1.409       .  A
C2031      C2036   1.400       .  A
C2031      H2037   1.083       .  S
C2032      C2033   1.405       .  A
C2033      C2034   1.406       .  A
C2033      H2038   1.083       .  S
C2034      C2035   1.414       .  A
C2034      H2039   1.080       .  S
C2035      C2036   1.407       .  A
C2036      H2040   1.079       .  S
C2041      C2042   1.408       .  A
C2041      C2046   1.412       .  A
C2042      C2043   1.408       .  A
C2043      C2044   1.394       .  A
C2043      H2048   1.083       .  S
C2044      C2045   1.407       .  A
C2044      H2049   1.083       .  S
C2045      C2046   1.415       .  A
C2046      H2050   1.078       .  S
C2051      C2472   1.404       .  A
C2051      C2056   1.408       .  A
C2051      H2057   1.083       .  S
C2052      C2471   1.404       .  A
C2052      C2053   1.400   1_554  A
C2053      C2474   1.391       .  A
C2053      H2058   1.085       .  S
C2054      C2473   1.391       .  A
C2054      C2055   1.407       .  A
C2054      H2059   1.078       .  S
C2055      C2056   1.414       .  A
C2056      H2060   1.081       .  S
C2061      C2066   1.402       .  A
C2061      H2067   1.082       .  S
C2062      C2063   1.421   1_655  A
C2063      C2064   1.411       .  A
C2063      H2068   1.081       .  S
C2064      C2065   1.403   1_455  A
C2064      H2069   1.083       .  S
C2066      H2070   1.083       .  S
C2071      C2072   1.409   1_455  A
C2071      C2076   1.393       .  A
C2071      H2077   1.078       .  S
C2073      C2074   1.388       .  A
C2073      H2078   1.083       .  S
C2074      H2079   1.084       .  S
C2075      C2076   1.400       .  A
C2076      H2080   1.084       .  S
C2081      C2082   1.399       .  A
C2081      C2086   1.404       .  A
C2081      H2087   1.083       .  S
C2082      C2083   1.414       .  A
C2083      C2084   1.408       .  A
C2083      H2088   1.083       .  S
C2084      C2085   1.403       .  A
C2084      H2089   1.083       .  S
C2085      C2086   1.415       .  A
C2086      H2090   1.083       .  S
C2091      C2092   1.398       .  A
C2091      C2096   1.392       .  A
C2091      H2097   1.084       .  S
C2092      C2093   1.408       .  A
C2093      C2094   1.398       .  A
C2093      H2098   1.084       .  S
C2094      C2095   1.399       .  A
C2094      H2099   1.084       .  S
C2095      C2096   1.406       .  A
C2096      H2100   1.084       .  S
C2101      C2102   1.532       .  S
C2101      C2105   1.538       .  S
C2101      C2492   1.509       .  S
C2102      H2109   1.086       .  S
C2102      C2103   1.370       .  D
C2103      C2502   1.498       .  S
C2104      C2108   1.542       .  S
C2104      H2110   1.109       .  S
C2105      H2111   1.081       .  S
C2105      C2106   1.371       .  D
C2106      C2482   1.512       .  S
C2107      H2112   1.090       .  S
C2107      C2108   1.345       .  D
C2108      C2512   1.459       .  S
O2113     Eu2149   2.476       .  S
O2114      C2125   1.295       .  A
O2115     Eu2961   2.456       .  S
O2115      C2126   1.290       .  A
O2116     Eu2121   2.450       .  S
O2116      C2127   1.287       .  A
O2117      C2127   1.285       .  A
O2118     Eu2150   2.432       .  S
O2118      C2126   1.288       .  A
O2119     Eu2961   2.442       .  S
O2119      C2125   1.288       .  A
O2120     Eu2121   2.367       .  S
O2120      C2124   1.276   1_655  A
Eu2121     O2955   2.455   1_545  S
Eu2121     O2959   2.438   1_545  S
Eu2121     O2131   2.349       .  S
Eu2121     O2963   2.343   1_645  S
Eu2121     O2122   2.327       .  S
Eu2121     O2969   2.341   1_545  S
O2122     Eu2568   2.349   1_546  S
O2123     Eu2961   2.343   1_455  S
O2123     Eu2150   2.325   1_455  S
C2124      C2495   1.439       .  S
C2125      C2412   1.482       .  S
C2126      C2392   1.468       .  S
C2127      C2442   1.446       .  S
H2128      O2129   0.965       .  S
O2129     Eu2961   2.342       .  S
O2129     Eu2150   2.365       .  S
H2130      O2131   0.964       .  S
O2132     Eu2148   2.461       .  S
O2132      C2155   1.290       .  A
O2133     Eu2149   2.467       .  S
O2134     Eu2150   2.496       .  S
O2134      C2157   1.298       .  A
O2135     Eu2151   2.505       .  S
O2135      C2158   1.299       .  A
O2136     Eu2151   2.511       .  S
O2137      C2160   1.303       .  A
O2138     Eu2152   2.516       .  S
O2138      C2161   1.300       .  A
O2139     Eu2992   2.566   1_545  S
O2141     Eu2151   2.407       .  S
O2141      C2162   1.283       .  A
O2142      C2157   1.291       .  A
O2143     Eu2989   2.412       .  S
O2143      C2160   1.282       .  A
O2144     Eu2149   2.435       .  S
O2144      C2159   1.289       .  A
O2145     Eu2148   2.399       .  S
O2145      C2998   1.282       .  A
O2146      C2155   1.284       .  A
O2147     Eu2152   2.446       .  S
O2147      C2996   1.290       .  A
Eu2148     O2542   2.349       .  S
Eu2148     O2166   2.374       .  S
Eu2149     O2983   2.414   1_545  S
Eu2149     O3004   2.338   1_545  S
Eu2150     O2154   2.361   1_556  S
Eu2151     O3006   2.356   1_545  S
Eu2152     O2979   2.566       .  S
Eu2152     O2993   2.364       .  S
O2153     Eu2992   2.365   1_545  S
C2155      C2382   1.446       .  S
C2156      O2987   1.290       .  A
C2156      C2422   1.477       .  S
C2157      C2452   1.496       .  S
C2158      O2985   1.282   1_545  A
C2158      C2432   1.471       .  S
C2159      C2462   1.498       .  S
C2160      C2402   1.481       .  S
C2161      C2472   1.469       .  S
C2162      C2485   1.509       .  S
H2163      O2164   0.963       .  S
O2164     Eu2989   2.337       .  S
H2165      O2166   0.965       .  S
O2166     Eu2991   2.357       .  S
C2167      C2168   1.518       .  S
C2167      C2173   1.528       .  S
C2167      C2171   1.552       .  S
C2167      C2372   1.512       .  S
C2168      H2175   1.088       .  S
C2168      C2169   1.355       .  D
C2169      C3010   1.533   1_545  S
C2169      C2425   1.462   1_545  S
C2170      C3009   1.534       .  S
C2170      C3014   1.544       .  S
C2170      C2172   1.551       .  S
C2170      H2176   1.107       .  S
C2171      H2177   1.081       .  S
C2171      C3012   1.380   1_545  D
C2172      C3011   1.379       .  D
C2172      C2362   1.503       .  S
C2173      H2178   1.087       .  S
C2173      C2174   1.356       .  D
C2174      C3010   1.544   1_545  S
C2174      C2435   1.475       .  S
O2179     Eu2215   2.526       .  S
O2179      C2190   1.302       .  A
O2180     Eu2214   2.484       .  S
O2180      C2191   1.292       .  A
O2181     Eu2187   2.438       .  S
O2181      C2192   1.286       .  A
O2182     Eu2187   2.450       .  S
O2182      C2193   1.287       .  A
O2183     Eu2217   2.422       .  S
O2183      C2193   1.285       .  A
O2184     Eu2216   2.425       .  S
O2184      C2192   1.287       .  A
O2185     Eu2187   2.445       .  S
O2185      C2191   1.287       .  A
O2186     Eu2187   2.357       .  S
O2186      C2190   1.274       .  A
Eu2187     O2197   2.358       .  S
Eu2187     O2189   2.353       .  S
Eu2187     O2188   2.319       .  S
Eu2187     O2195   2.343       .  S
O2188     Eu2217   2.361       .  S
O2188     Eu2214   2.353       .  S
O2189     Eu2215   2.346       .  S
O2189     Eu2216   2.330       .  S
C2190      C2515   1.457       .  S
C2191      C2292   1.477       .  S
C2192      C2352   1.451       .  S
C2193      C2375   1.447       .  S
H2194      O2195   0.964       .  S
O2195     Eu2216   2.372       .  S
O2195     Eu2214   2.352       .  S
H2196      O2197   0.966       .  S
O2197     Eu2215   2.345       .  S
O2197     Eu2217   2.343       .  S
O2198     Eu2214   2.457       .  S
O2198      C2221   1.288       .  A
O2199     Eu2215   2.513       .  S
O2199      C2222   1.300       .  A
O2200     Eu2216   2.494       .  S
O2200      C2223   1.297       .  A
O2201     Eu2217   2.522       .  S
O2201      C2224   1.302       .  A
O2202     Eu2217   2.531       .  S
O2202      C2225   1.303       .  A
O2203     Eu2216   2.530       .  S
O2203      C2226   1.302       .  A
O2204     Eu2218   2.521       .  S
O2204      C2227   1.300       .  A
O2205     Eu2218   2.538       .  S
O2205      C2228   1.305       .  A
O2206     Eu2216   2.401       .  S
O2206      C2227   1.282       .  A
O2207     Eu2217   2.421       .  S
O2207      C2228   1.286       .  A
O2208     Eu2214   2.439       .  S
O2208      C2223   1.289       .  A
O2209     Eu2215   2.432       .  S
O2209      C2226   1.286       .  A
O2210     Eu2215   2.456       .  S
O2210      C2225   1.293       .  A
O2211     Eu2214   2.399       .  S
O2211      C2224   1.282       .  A
O2212     Eu2218   2.396       .  S
O2212      C2221   1.281       .  A
O2213     Eu2218   2.423       .  S
O2213      C2222   1.287       .  A
Eu2214     O2232   2.362       .  S
Eu2214     O2220   2.345       .  S
Eu2215     O2219   2.370       .  S
Eu2215     O2230   2.350       .  S
Eu2216     O2230   2.343       .  S
Eu2216     O2220   2.356       .  S
Eu2217     O2219   2.371       .  S
Eu2217     O2232   2.355       .  S
Eu2218     O2219   2.362       .  S
Eu2218     O2230   2.349       .  S
Eu2218     O2232   2.346       .  S
Eu2218     O2220   2.353       .  S
C2221      C2342   1.440       .  S
C2222      C2302   1.483       .  S
C2223      C2365   1.491       .  S
C2224      C2312   1.483       .  S
C2225      C2332   1.512       .  S
C2226      C2282   1.483       .  S
C2227      C2325   1.471       .  S
C2228      C2505   1.497       .  S
H2229      O2230   0.963       .  S
H2231      O2232   0.963       .  S
C2233      C2239   1.535       .  S
C2233      C2237   1.552       .  S
C2233      C2465   1.540       .  S
C2234      H2241   1.086       .  S
C2234      C2235   1.368       .  D
C2235      C2295   1.496       .  S
C2236      C2240   1.548       .  S
C2236      C2238   1.548       .  S
C2236      H2242   1.104       .  S
C2237      H2243   1.081   1_556  S
C2237      C2238   1.379       .  D
C2238      C2475   1.503   1_556  S
C2239      H2244   1.086       .  S
C2239      C2240   1.365       .  D
C2240      C2285   1.502       .  S
C2245      C2246   1.534   1_655  S
C2245      C2251   1.540       .  S
C2245      C2249   1.541       .  S
C2245      C2395   1.523       .  S
C2246      C2247   1.358       .  D
C2247      C2248   1.522   1_455  S
C2248      C2252   1.522       .  S
C2248      C2250   1.530       .  S
C2248      H2254   1.108       .  S
C2249      H2255   1.085       .  S
C2249      C2250   1.373       .  D
C2250      C2385   1.476       .  S
C2251      H2256   1.086       .  S
C2251      C2252   1.366       .  D
C2252      C2345   1.466       .  S
C2257      C2258   1.518       .  S
C2257      C2263   1.528       .  S
C2257      C2261   1.545       .  S
C2257      C2445   1.511       .  S
C2258      H2265   1.088       .  S
C2258      C2259   1.353       .  D
C2259      C2260   1.546       .  S
C2259      C2305   1.474       .  S
C2260      C2264   1.552   1_556  S
C2260      C2262   1.559       .  S
C2260      H2266   1.107       .  S
C2261      H2267   1.080       .  S
C2261      C2262   1.379       .  D
C2262      C2455   1.509       .  S
C2263      C2264   1.357   1_556  D
C2269      C2270   1.540       .  S
C2269      C2275   1.538       .  S
C2269      C3113   1.552   1_545  S
C2269      C2335   1.552       .  S
C2270      H2277   1.085       .  S
C2270      C3111   1.372       .  D
C2271      C2272   1.542       .  S
C2271      C3110   1.372       .  D
C2271      C2415   1.508       .  S
C2272      C2276   1.545       .  S
C2272      C2274   1.545       .  S
C2272      H2278   1.105       .  S
C2273      C3109   1.553       .  S
C2273      H2279   1.082       .  S
C2273      C2274   1.381       .  D
C2274      C2322   1.499       .  S
C2275      H2280   1.086       .  S
C2275      C3116   1.367   1_545  D
C2276      C3115   1.367       .  D
C2276      C2405   1.503       .  S
C2281      C2282   1.407       .  A
C2281      C2286   1.407       .  A
C2281      H2287   1.083       .  S
C2282      C2283   1.404       .  A
C2283      C2284   1.405       .  A
C2283      H2288   1.084       .  S
C2284      C2285   1.411       .  A
C2284      H2289   1.083       .  S
C2285      C2286   1.406       .  A
C2286      H2290   1.083       .  S
C2291      C2292   1.404       .  A
C2291      C2296   1.400       .  A
C2291      H2297   1.084       .  S
C2292      C2293   1.402       .  A
C2293      C2294   1.404       .  A
C2293      H2298   1.083       .  S
C2294      C2295   1.411       .  A
C2294      H2299   1.081       .  S
C2295      C2296   1.405       .  A
C2296      H2300   1.083       .  S
C2301      C2302   1.412       .  A
C2301      C2306   1.397       .  A
C2301      H2307   1.083       .  S
C2302      C2303   1.401       .  A
C2303      C2304   1.400       .  A
C2303      H2308   1.083       .  S
C2304      C2305   1.410       .  A
C2304      H2309   1.083       .  S
C2305      C2306   1.397       .  A
C2306      H2310   1.084       .  S
C2311      C2312   1.402       .  A
C2311      C2316   1.404       .  A
C2311      H2317   1.083       .  S
C2312      C2313   1.413       .  A
C2313      C2314   1.395       .  A
C2313      H2318   1.083       .  S
C2314      C2315   1.396       .  A
C2314      H2319   1.082       .  S
C2315      C2316   1.411       .  A
C2316      H2320   1.083       .  S
C2321      C2322   1.411       .  A
C2321      C2326   1.407       .  A
C2321      H2327   1.082       .  S
C2322      C2323   1.407       .  A
C2323      C2324   1.394       .  A
C2323      H2328   1.080       .  S
C2324      C2325   1.401       .  A
C2324      H2329   1.084       .  S
C2325      C2326   1.404       .  A
C2326      H2330   1.083       .  S
C2331      C2332   1.412       .  A
C2331      C2336   1.421       .  A
C2331      H2337   1.083       .  S
C2332      C2333   1.409       .  A
C2333      C2334   1.398       .  A
C2333      H2338   1.083       .  S
C2334      C2335   1.407       .  A
C2334      H2339   1.083       .  S
C2335      C2336   1.418       .  A
C2336      H2340   1.079       .  S
C2341      C2342   1.402       .  A
C2341      C2346   1.391       .  A
C2341      H2347   1.084       .  S
C2342      C2343   1.397       .  A
C2343      C2344   1.389       .  A
C2343      H2348   1.084       .  S
C2344      C2345   1.406       .  A
C2344      H2349   1.083       .  S
C2345      C2346   1.399       .  A
C2346      H2350   1.083       .  S
C2351      C2352   1.399       .  A
C2351      C2356   1.385       .  A
C2351      H2357   1.084       .  S
C2352      C2353   1.400       .  A
C2353      C2354   1.398       .  A
C2353      H2358   1.083       .  S
C2354      C2355   1.405       .  A
C2354      H2359   1.082       .  S
C2355      C2356   1.400       .  A
C2356      H2360   1.083       .  S
C2361      C2362   1.412       .  A
C2361      C2366   1.408       .  A
C2361      H2367   1.081       .  S
C2362      C2363   1.406       .  A
C2363      C2364   1.393       .  A
C2363      H2368   1.077       .  S
C2364      C2365   1.406       .  A
C2364      H2369   1.083       .  S
C2365      C2366   1.406       .  A
C2366      H2370   1.083       .  S
C2371      C2372   1.413       .  A
C2371      C2376   1.387       .  A
C2371      H2377   1.084       .  S
C2372      C2373   1.404       .  A
C2373      C2374   1.396       .  A
C2373      H2378   1.079       .  S
C2374      C2375   1.404       .  A
C2374      H2379   1.084       .  S
C2375      C2376   1.391       .  A
C2376      H2380   1.084       .  S
C2381      C2382   1.397       .  A
C2381      C2386   1.387       .  A
C2381      H2387   1.084       .  S
C2382      C2383   1.401       .  A
C2383      C2384   1.396       .  A
C2383      H2388   1.084       .  S
C2384      C2385   1.406       .  A
C2384      H2389   1.082       .  S
C2385      C2386   1.404       .  A
C2386      H2390   1.081       .  S
C2391      C2392   1.400       .  A
C2391      C2396   1.400       .  A
C2391      H2397   1.083       .  S
C2392      C2393   1.401   1_655  A
C2393      C2394   1.388       .  A
C2394      C2395   1.408   1_455  A
C2395      C2396   1.412       .  A
C2396      H2400   1.083       .  S
C2401      C2402   1.403       .  A
C2401      C2406   1.404       .  A
C2401      H3247   1.084       .  S
C2402      C2403   1.408       .  A
C2403      C2404   1.408       .  A
C2403      H2408   1.084       .  S
C2404      C2405   1.406       .  A
C2404      H2409   1.083       .  S
C2405      C2406   1.410       .  A
C2406      H3250   1.083       .  S
H2407      C3241   1.084       .  S
H2410      C3246   1.083       .  S
C2411      C2412   1.402       .  A
C2411      C2416   1.408       .  A
C2411      H2417   1.083       .  S
C2412      C2413   1.404       .  A
C2413      C2414   1.399       .  A
C2413      H2418   1.084       .  S
C2414      C2415   1.408       .  A
C2414      H2419   1.082       .  S
C2415      C2416   1.415       .  A
C2416      H2420   1.081       .  S
C2421      C3262   1.405       .  A
C2421      C3266   1.396       .  A
C2422      C3261   1.405   1_565  A
C2422      C2423   1.408       .  A
C2423      C2424   1.394       .  A
C2423      H2428   1.083       .  S
C2424      C2425   1.399       .  A
C2424      H2429   1.084       .  S
C2425      C2426   1.403   1_565  A
C2426      C3261   1.395       .  A
C2426      H3270   1.083       .  S
H2430      C3266   1.084       .  S
C2431      C2432   1.401       .  A
C2431      C2436   1.402       .  A
C2431      H2437   1.083       .  S
C2432      C3273   1.408   1_545  A
C2433      C3272   1.408       .  A
C2433      C2434   1.391       .  A
C2433      H2438   1.084       .  S
C2434      C3275   1.395       .  A
C2434      H2439   1.080       .  S
C2435      C3274   1.395   1_545  A
C2435      C2436   1.409       .  A
C2436      H2440   1.083       .  S
C2441      C2442   1.390       .  A
C2441      C2446   1.384       .  A
C2441      H2447   1.084       .  S
C2442      C2443   1.403       .  A
C2443      C2444   1.397       .  A
C2443      H2448   1.084       .  S
C2444      C2445   1.405       .  A
C2444      H2449   1.079       .  S
C2445      C2446   1.412       .  A
C2446      H2450   1.084       .  S
C2451      C2452   1.409       .  A
C2451      C2456   1.400       .  A
C2451      H2457   1.083       .  S
C2452      C2453   1.405       .  A
C2453      C2454   1.406       .  A
C2453      H2458   1.083       .  S
C2454      C2455   1.414       .  A
C2454      H2459   1.080       .  S
C2455      C2456   1.407       .  A
C2456      H2460   1.079       .  S
C2461      C2462   1.408   1_554  A
C2461      C2466   1.412       .  A
C2462      C2463   1.408       .  A
C2463      C2464   1.394       .  A
C2463      H2468   1.083       .  S
C2464      C2465   1.407       .  A
C2464      H2469   1.083       .  S
C2465      C2466   1.415   1_556  A
C2466      H2470   1.078       .  S
C2471      C2476   1.408       .  A
C2471      H2477   1.083       .  S
C2472      C2473   1.400       .  A
C2473      H2478   1.085       .  S
C2474      C2475   1.407   1_556  A
C2474      H2479   1.078       .  S
C2475      C2476   1.414       .  A
C2476      H2480   1.081       .  S
C2481      C2486   1.402       .  A
C2481      H2487   1.082       .  S
C2482      C2483   1.421   1_655  A
C2483      C2484   1.411       .  A
C2483      H2488   1.081       .  S
C2484      C2485   1.403   1_455  A
C2484      H2489   1.083       .  S
C2486      H2490   1.083       .  S
C2491      C2492   1.409   1_455  A
C2491      C2496   1.393       .  A
C2491      H2497   1.078       .  S
C2493      C2494   1.388       .  A
C2493      H2498   1.083       .  S
C2494      H2499   1.084       .  S
C2495      C2496   1.400       .  A
C2496      H2500   1.084       .  S
C2501      C2502   1.399       .  A
C2501      C2506   1.404       .  A
C2501      H2507   1.083       .  S
C2502      C2503   1.414       .  A
C2503      C2504   1.408       .  A
C2503      H2508   1.083       .  S
C2504      C2505   1.403       .  A
C2504      H2509   1.083       .  S
C2505      C2506   1.415       .  A
C2506      H2510   1.083       .  S
C2511      C2512   1.398       .  A
C2511      C2516   1.392       .  A
C2511      H2517   1.084       .  S
C2512      C2513   1.408       .  A
C2513      C2514   1.398       .  A
C2513      H2518   1.084       .  S
C2514      C2515   1.399       .  A
C2514      H2519   1.084       .  S
C2515      C2516   1.406       .  A
C2516      H2520   1.084       .  S
C2521      C2522   1.533       .  S
C2521      C2525   1.538       .  S
C2521      C2912   1.509       .  S
C2522      H2529   1.086       .  S
C2522      C2523   1.370       .  D
C2523      C2922   1.499       .  S
C2524      C2528   1.542       .  S
C2524      H2530   1.109       .  S
C2525      H2531   1.081       .  S
C2525      C2526   1.370       .  D
C2526      C2902   1.513       .  S
C2527      H2532   1.090       .  S
C2527      C2528   1.345       .  D
C2528      C2932   1.459       .  S
O2533     Eu2569   2.477       .  S
O2534     Eu2988   2.494       .  S
O2534      C2545   1.295       .  A
O2535      C2546   1.289       .  A
O2536     Eu2541   2.451       .  S
O2536      C2547   1.288       .  A
O2537     Eu2991   2.422       .  S
O2537      C2547   1.285       .  A
O2538     Eu2570   2.432       .  S
O2538      C2546   1.288       .  A
O2539      C2545   1.287       .  A
O2540     Eu2541   2.368       .  S
O2540      C2544   1.277   1_655  A
Eu2541     O2551   2.350       .  S
Eu2541     O2542   2.327       .  S
O2542     Eu2991   2.357       .  S
O2543     Eu2570   2.325   1_455  S
C2544      C2915   1.440       .  S
C2545      C2832   1.481       .  S
C2546      C2812   1.468       .  S
C2547      C2862   1.446       .  S
H2548      O2549   0.965       .  S
O2549     Eu2570   2.365       .  S
O2549     Eu2988   2.351       .  S
H2550      O2551   0.964       .  S
O2551     Eu2991   2.332       .  S
O2552     Eu2568   2.460       .  S
O2552      C2575   1.289       .  A
O2553     Eu2569   2.469       .  S
O2553      C2996   1.293       .  A
O2554     Eu2570   2.495       .  S
O2554      C2577   1.298       .  A
O2555     Eu2571   2.504       .  S
O2555      C2578   1.299       .  A
O2556     Eu2571   2.509       .  S
O2557      C2580   1.303       .  A
O2558     Eu2572   2.521       .  S
O2558      C2581   1.301       .  A
O2560      C3001   1.283       .  A
O2561     Eu2571   2.407       .  S
O2561      C2582   1.283       .  A
O2562     Eu2988   2.451       .  S
O2562      C2577   1.291       .  A
O2563      C2580   1.283       .  A
O2564     Eu2569   2.434       .  S
O2564      C2579   1.288       .  A
O2565     Eu2568   2.398       .  S
O2566      C2575   1.284       .  A
O2567     Eu2572   2.442       .  S
Eu2568     O2954   2.494   1_554  S
Eu2568     O2982   2.451   1_554  S
Eu2568     O2969   2.351   1_554  S
Eu2568     O2586   2.373       .  S
Eu2568     O2994   2.346       .  S
Eu2569     O2993   2.365       .  S
Eu2570     O2574   2.361       .  S
Eu2571     O2957   2.422   1_554  S
Eu2571     O2962   2.357   1_554  S
Eu2571     O2971   2.332   1_554  S
Eu2572     O3004   2.356   1_554  S
O2573     Eu2989   2.365   1_554  S
O2574     Eu2988   2.346       .  S
C2575      C2802   1.446       .  S
C2576      O2973   1.293   1_554  A
C2576      C2842   1.479       .  S
C2577      C2872   1.496       .  S
C2578      C2852   1.471       .  S
C2579      C2882   1.497       .  S
C2580      C2822   1.482       .  S
C2581      O2980   1.283   1_554  A
C2581      C2892   1.471       .  S
C2582      C2905   1.509       .  S
H2583      O2584   0.963       .  S
O2584     Eu2992   2.356       .  S
H2585      O2586   0.965       .  S
C2587      C2588   1.518       .  S
C2587      C2593   1.528       .  S
C2587      C2591   1.552       .  S
C2587      C2792   1.512       .  S
C2588      H2595   1.088       .  S
C2588      C2589   1.355       .  D
C2589      C2845   1.463       .  S
C2590      C2592   1.551       .  S
C2590      H2596   1.107       .  S
C2591      H2597   1.082       .  S
C2592      C2782   1.504       .  S
C2593      H2598   1.087       .  S
C2593      C2594   1.356       .  D
C2594      C2855   1.475       .  S
O2599     Eu2635   2.525       .  S
O2599      C2610   1.302       .  A
O2600     Eu2634   2.484       .  S
O2600      C2611   1.292       .  A
O2601     Eu2607   2.440       .  S
O2601      C2612   1.286       .  A
O2602     Eu2607   2.451       .  S
O2602      C2613   1.287       .  A
O2603     Eu2637   2.420       .  S
O2603      C2613   1.285       .  A
O2604     Eu2636   2.427       .  S
O2604      C2612   1.287       .  A
O2605     Eu2607   2.442       .  S
O2605      C2611   1.286       .  A
O2606     Eu2607   2.354       .  S
O2606      C2610   1.274       .  A
Eu2607     O2617   2.357       .  S
Eu2607     O2609   2.353       .  S
Eu2607     O2608   2.319       .  S
Eu2607     O2615   2.342       .  S
O2608     Eu2637   2.361       .  S
O2608     Eu2634   2.350       .  S
O2609     Eu2635   2.346       .  S
O2609     Eu2636   2.333       .  S
C2610      C2935   1.456       .  S
C2611      C2712   1.475       .  S
C2612      C2772   1.452       .  S
C2613      C2795   1.447       .  S
H2614      O2615   0.964       .  S
O2615     Eu2636   2.371       .  S
O2615     Eu2634   2.352       .  S
H2616      O2617   0.966       .  S
O2617     Eu2635   2.341       .  S
O2617     Eu2637   2.344       .  S
O2618     Eu2634   2.456       .  S
O2618      C2641   1.288       .  A
O2619     Eu2635   2.507       .  S
O2619      C2642   1.299       .  A
O2620     Eu2636   2.496       .  S
O2620      C2643   1.297       .  A
O2621     Eu2637   2.523       .  S
O2621      C2644   1.303       .  A
O2622     Eu2637   2.533       .  S
O2622      C2645   1.303       .  A
O2623     Eu2636   2.531       .  S
O2623      C2646   1.302       .  A
O2624     Eu2638   2.516       .  S
O2624      C2647   1.300       .  A
O2625     Eu2638   2.534       .  S
O2625      C2648   1.304       .  A
O2626     Eu2636   2.404       .  S
O2626      C2647   1.283       .  A
O2627     Eu2637   2.425       .  S
O2627      C2648   1.286       .  A
O2628     Eu2634   2.436       .  S
O2628      C2643   1.289       .  A
O2629     Eu2635   2.427       .  S
O2629      C2646   1.285       .  A
O2630     Eu2635   2.452       .  S
O2630      C2645   1.292       .  A
O2631     Eu2634   2.399       .  S
O2631      C2644   1.282       .  A
O2632     Eu2638   2.399       .  S
O2632      C2641   1.282       .  A
O2633     Eu2638   2.425       .  S
O2633      C2642   1.287       .  A
Eu2634     O2652   2.361       .  S
Eu2634     O2640   2.345       .  S
Eu2635     O2639   2.370       .  S
Eu2635     O2650   2.352       .  S
Eu2636     O2650   2.342       .  S
Eu2636     O2640   2.356       .  S
Eu2637     O2639   2.369       .  S
Eu2637     O2652   2.354       .  S
Eu2638     O2639   2.362       .  S
Eu2638     O2650   2.350       .  S
Eu2638     O2652   2.346       .  S
Eu2638     O2640   2.353       .  S
C2641      C2762   1.441       .  S
C2642      C2722   1.481       .  S
C2643      C2785   1.491       .  S
C2644      C2732   1.484       .  S
C2645      C2752   1.511       .  S
C2646      C2702   1.482       .  S
C2647      C2745   1.470       .  S
C2648      C2925   1.497       .  S
H2649      O2650   0.963       .  S
H2651      O2652   0.963       .  S
C2653      C3074   1.538       .  S
C2653      C2659   1.535       .  S
C2653      C2657   1.553       .  S
C2653      C2885   1.539       .  S
C2654      C3073   1.538   1_554  S
C2654      H2661   1.086       .  S
C2654      C2655   1.367   1_554  D
C2655      C3076   1.537       .  S
C2655      C2715   1.495   1_556  S
C2656      C3075   1.537       .  S
C2656      C2660   1.547       .  S
C2656      C2658   1.548       .  S
C2656      H2662   1.105       .  S
C2657      H2663   1.081       .  S
C2657      C2658   1.380       .  D
C2658      C2895   1.504       .  S
C2659      H2664   1.086       .  S
C2659      C2660   1.364       .  D
C2660      C2705   1.501       .  S
C2665      C2666   1.535   1_655  S
C2665      C2671   1.540       .  S
C2665      C2669   1.541       .  S
C2665      C2815   1.523       .  S
C2666      C2667   1.358       .  D
C2667      C2668   1.522   1_455  S
C2668      C2672   1.522       .  S
C2668      C2670   1.530       .  S
C2668      H2674   1.109       .  S
C2669      H2675   1.085       .  S
C2669      C2670   1.373       .  D
C2670      C2805   1.476       .  S
C2671      H2676   1.086       .  S
C2671      C2672   1.366       .  D
C2672      C2765   1.465       .  S
C2677      C2678   1.517       .  S
C2677      C2683   1.528       .  S
C2677      C2681   1.544       .  S
C2677      C2865   1.511       .  S
C2678      H2685   1.088       .  S
C2678      C2679   1.353       .  D
C2679      C2680   1.545       .  S
C2679      C2725   1.474       .  S
C2680      C2684   1.552       .  S
C2680      C2682   1.561       .  S
C2680      H2686   1.107       .  S
C2681      H2687   1.080       .  S
C2681      C2682   1.380       .  D
C2682      C2875   1.511       .  S
C2683      H3108   1.087       .  S
C2683      C2684   1.357       .  D
C2684      C3155   1.484       .  S
H2688      C3103   1.087   1_554  S
C2689      C2690   1.540       .  S
C2689      C2695   1.538       .  S
C2689      C2755   1.552       .  S
C2690      H2697   1.085       .  S
C2691      C2692   1.543   1_545  S
C2691      C2835   1.508   1_545  S
C2692      C2696   1.545       .  S
C2692      C2694   1.545       .  S
C2692      H2698   1.105       .  S
C2693      H2699   1.082       .  S
C2693      C2694   1.382       .  D
C2694      C2742   1.499       .  S
C2695      H2700   1.086       .  S
C2696      C2825   1.503       .  S
C2701      C2702   1.407       .  A
C2701      C2706   1.407       .  A
C2701      H2707   1.084       .  S
C2702      C2703   1.404       .  A
C2703      C2704   1.405       .  A
C2703      H2708   1.084       .  S
C2704      C2705   1.410       .  A
C2704      H2709   1.083       .  S
C2705      C2706   1.405       .  A
C2706      H2710   1.083       .  S
C2711      C2712   1.404       .  A
C2711      C2716   1.399       .  A
C2711      H2717   1.084       .  S
C2712      C2713   1.401       .  A
C2713      C2714   1.404       .  A
C2713      H2718   1.083       .  S
C2714      C2715   1.411       .  A
C2714      H2719   1.081       .  S
C2715      C2716   1.405       .  A
C2716      H2720   1.083       .  S
C2721      C2722   1.412       .  A
C2721      C2726   1.397       .  A
C2721      H2727   1.083       .  S
C2722      C2723   1.400       .  A
C2723      C2724   1.400       .  A
C2723      H2728   1.083       .  S
C2724      C2725   1.410       .  A
C2724      H2729   1.084       .  S
C2725      C2726   1.397       .  A
C2726      H2730   1.084       .  S
C2731      C2732   1.402       .  A
C2731      C2736   1.404       .  A
C2731      H2737   1.083       .  S
C2732      C2733   1.413       .  A
C2733      C2734   1.395       .  A
C2733      H2738   1.083       .  S
C2734      C2735   1.396       .  A
C2734      H2739   1.082       .  S
C2735      C3104   1.484       .  S
C2735      C2736   1.412       .  A
C2736      H2740   1.083       .  S
C2741      C2742   1.411       .  A
C2741      C2746   1.407       .  A
C2741      H2747   1.082       .  S
C2742      C2743   1.408       .  A
C2743      C2744   1.394       .  A
C2743      H2748   1.080       .  S
C2744      C2745   1.401       .  A
C2744      H2749   1.084       .  S
C2745      C2746   1.404       .  A
C2746      H2750   1.083       .  S
C2751      C2752   1.412       .  A
C2751      C2756   1.421       .  A
C2751      H2757   1.083       .  S
C2752      C2753   1.409       .  A
C2753      C2754   1.398       .  A
C2753      H2758   1.083       .  S
C2754      C2755   1.407       .  A
C2754      H2759   1.083       .  S
C2755      C2756   1.418       .  A
C2756      H2760   1.079       .  S
C2761      C2762   1.402       .  A
C2761      C2766   1.391       .  A
C2761      H2767   1.084       .  S
C2762      C2763   1.397       .  A
C2763      C2764   1.390       .  A
C2763      H2768   1.084       .  S
C2764      C2765   1.406       .  A
C2764      H2769   1.083       .  S
C2765      C2766   1.398       .  A
C2766      H2770   1.083       .  S
C2771      C2772   1.399       .  A
C2771      C2776   1.386       .  A
C2771      H2777   1.084       .  S
C2772      C2773   1.400       .  A
C2773      C2774   1.399       .  A
C2773      H2778   1.083       .  S
C2774      C2775   1.405       .  A
C2774      H2779   1.082       .  S
C2775      C2776   1.400       .  A
C2776      H2780   1.083       .  S
C2781      C2782   1.413       .  A
C2781      C2786   1.408       .  A
C2781      H2787   1.081       .  S
C2782      C2783   1.406       .  A
C2783      C2784   1.393       .  A
C2783      H2788   1.077       .  S
C2784      C2785   1.406       .  A
C2784      H2789   1.083       .  S
C2785      C2786   1.406       .  A
C2786      H2790   1.083       .  S
C2791      C2792   1.413       .  A
C2791      C2796   1.387       .  A
C2791      H2797   1.084       .  S
C2792      C2793   1.404       .  A
C2793      C2794   1.396       .  A
C2793      H2798   1.079       .  S
C2794      C2795   1.404       .  A
C2794      H2799   1.084       .  S
C2795      C2796   1.391       .  A
C2796      H2800   1.084       .  S
C2801      C2802   1.397       .  A
C2801      C2806   1.387       .  A
C2801      H2807   1.084       .  S
C2802      C2803   1.401       .  A
C2803      C2804   1.396       .  A
C2803      H2808   1.084       .  S
C2804      C2805   1.406       .  A
C2804      H2809   1.082       .  S
C2805      C2806   1.404       .  A
C2806      H2810   1.081       .  S
C2811      C2812   1.400       .  A
C2811      C2816   1.400       .  A
C2811      H2817   1.083       .  S
C2812      C2813   1.401   1_655  A
C2813      C2814   1.388       .  A
C2814      C2815   1.407   1_455  A
C2815      C2816   1.412       .  A
C2816      H2820   1.083       .  S
C2821      C2822   1.404       .  A
C2821      C2826   1.405       .  A
C2822      C2823   1.408       .  A
C2823      C2824   1.408       .  A
C2823      H2828   1.084       .  S
C2824      C2825   1.406       .  A
C2824      H2829   1.083       .  S
C2825      C2826   1.410       .  A
C2831      C2832   1.402       .  A
C2831      C2836   1.408       .  A
C2831      H2837   1.083       .  S
C2832      C2833   1.404   1_565  A
C2833      C2834   1.399       .  A
C2833      H2838   1.084       .  S
C2834      C2835   1.408   1_545  A
C2834      H2839   1.082       .  S
C2835      C2836   1.415       .  A
C2836      H2840   1.081       .  S
C2841      H3267   1.083   1_554  S
C2842      C2843   1.408       .  A
C2843      C2844   1.394       .  A
C2843      H2848   1.083       .  S
C2844      C2845   1.399       .  A
C2844      H2849   1.084       .  S
C2845      C2846   1.403       .  A
H2847      C3261   1.083       .  S
C2851      C2852   1.401       .  A
C2851      C2856   1.402       .  A
C2851      H2857   1.083       .  S
C2853      C2854   1.391       .  A
C2853      H2858   1.084       .  S
C2854      H2859   1.081       .  S
C2855      C2856   1.409       .  A
C2856      H2860   1.083       .  S
C2861      C2862   1.389       .  A
C2861      C2866   1.384       .  A
C2861      H2867   1.084       .  S
C2862      C2863   1.404       .  A
C2863      C2864   1.398       .  A
C2863      H2868   1.084       .  S
C2864      C2865   1.406       .  A
C2864      H2869   1.079       .  S
C2865      C2866   1.411       .  A
C2866      H2870   1.084       .  S
C2871      C2872   1.409       .  A
C2871      C2876   1.400       .  A
C2871      H2877   1.083       .  S
C2872      C2873   1.405       .  A
C2873      C2874   1.406       .  A
C2873      H2878   1.083       .  S
C2874      C2875   1.415       .  A
C2874      H2879   1.080       .  S
C2875      C2876   1.407       .  A
C2876      H2880   1.078       .  S
C2881      C2882   1.408       .  A
C2881      C2886   1.412       .  A
C2882      C2883   1.408       .  A
C2883      C2884   1.394       .  A
C2883      H2888   1.083       .  S
C2884      C2885   1.407       .  A
C2884      H2889   1.084       .  S
C2885      C2886   1.414       .  A
C2886      H2890   1.078       .  S
C2891      C3312   1.404       .  A
C2891      C2896   1.409       .  A
C2891      H2897   1.083       .  S
C2892      C3311   1.404       .  A
C2892      C2893   1.400   1_554  A
C2893      C3314   1.392       .  A
C2893      H2898   1.084       .  S
C2894      C3313   1.392       .  A
C2894      C2895   1.407       .  A
C2894      H2899   1.078       .  S
C2895      C2896   1.414       .  A
C2896      H2900   1.081       .  S
C2901      C2906   1.403       .  A
C2901      H2907   1.082       .  S
C2902      C2903   1.421   1_655  A
C2903      C2904   1.412       .  A
C2903      H2908   1.081       .  S
C2904      C2905   1.403   1_455  A
C2904      H2909   1.083       .  S
C2906      H2910   1.083       .  S
C2911      C2912   1.410   1_455  A
C2911      C2916   1.393       .  A
C2911      H2917   1.078       .  S
C2913      C2914   1.388       .  A
C2913      H2918   1.083       .  S
C2914      H2919   1.084       .  S
C2915      C2916   1.400       .  A
C2916      H2920   1.084       .  S
C2921      C2922   1.399       .  A
C2921      C2926   1.404       .  A
C2921      H2927   1.083       .  S
C2922      C2923   1.414       .  A
C2923      C2924   1.408       .  A
C2923      H2928   1.083       .  S
C2924      C2925   1.403       .  A
C2924      H2929   1.083       .  S
C2925      C2926   1.415       .  A
C2926      H2930   1.083       .  S
C2931      C2932   1.398       .  A
C2931      C2936   1.392       .  A
C2931      H2937   1.084       .  S
C2932      C2933   1.408       .  A
C2933      C2934   1.398       .  A
C2933      H2938   1.084       .  S
C2934      C2935   1.399       .  A
C2934      H2939   1.084       .  S
C2935      C2936   1.406       .  A
C2936      H2940   1.084       .  S
C2941      C2942   1.533       .  S
C2941      C2945   1.538       .  S
C2941      C3332   1.509       .  S
C2942      H2949   1.086       .  S
C2942      C2943   1.370       .  D
C2943      C3342   1.499       .  S
C2944      C2948   1.542       .  S
C2944      H2950   1.109       .  S
C2945      H2951   1.081       .  S
C2945      C2946   1.370       .  D
C2946      C3322   1.513       .  S
C2947      H2952   1.090       .  S
C2947      C2948   1.345       .  D
C2948      C3352   1.459       .  S
O2953     Eu2989   2.477       .  S
O2954      C2965   1.295       .  A
O2955      C2966   1.289       .  A
O2956     Eu2961   2.451       .  S
O2956      C2967   1.288       .  A
O2957      C2967   1.285       .  A
O2958     Eu2990   2.432       .  S
O2958      C2966   1.288       .  A
O2959      C2965   1.287       .  A
O2960     Eu2961   2.368       .  S
O2960      C2964   1.277   1_655  A
Eu2961     O2971   2.350       .  S
Eu2961     O2962   2.327       .  S
O2963     Eu2990   2.325   1_455  S
C2964      C3335   1.440       .  S
C2965      C3252   1.481       .  S
C2966      C3232   1.468       .  S
C2967      C3282   1.446       .  S
H2968      O2969   0.965       .  S
O2969     Eu2990   2.365       .  S
H2970      O2971   0.964       .  S
O2972     Eu2988   2.460       .  S
O2972      C2995   1.289       .  A
O2973     Eu2989   2.469       .  S
O2974     Eu2990   2.495       .  S
O2974      C2997   1.298       .  A
O2975     Eu2991   2.504       .  S
O2975      C2998   1.299       .  A
O2976     Eu2991   2.509       .  S
O2977      C3000   1.303       .  A
O2978     Eu2992   2.521       .  S
O2978      C3001   1.301       .  A
O2981     Eu2991   2.408       .  S
O2981      C3002   1.283       .  A
O2982      C2997   1.291       .  A
O2983      C3000   1.283       .  A
O2984     Eu2989   2.434       .  S
O2984      C2999   1.288       .  A
O2985     Eu2988   2.399       .  S
O2986      C2995   1.284       .  A
O2987     Eu2992   2.442       .  S
Eu2988     O3006   2.373       .  S
Eu2990     O2994   2.361   1_556  S
C2995      C3222   1.446       .  S
C2996      C3262   1.479       .  S
C2997      C3292   1.496       .  S
C2998      C3272   1.471       .  S
C2999      C3302   1.497       .  S
C3000      C3242   1.482       .  S
C3001      C3312   1.471       .  S
C3002      C3325   1.509       .  S
H3003      O3004   0.963       .  S
H3005      O3006   0.965       .  S
C3007      C3008   1.518       .  S
C3007      C3013   1.528       .  S
C3007      C3011   1.552       .  S
C3007      C3212   1.512       .  S
C3008      H3015   1.088       .  S
C3008      C3009   1.355       .  D
C3009      C3265   1.463       .  S
C3010      C3012   1.551       .  S
C3010      H3016   1.107       .  S
C3011      H3017   1.082       .  S
C3012      C3202   1.504       .  S
C3013      H3018   1.087       .  S
C3013      C3014   1.356       .  D
C3014      C3275   1.475       .  S
O3019     Eu3055   2.525       .  S
O3019      C3030   1.302       .  A
O3020     Eu3054   2.484       .  S
O3020      C3031   1.292       .  A
O3021     Eu3027   2.440       .  S
O3021      C3032   1.286       .  A
O3022     Eu3027   2.451       .  S
O3022      C3033   1.287       .  A
O3023     Eu3057   2.420       .  S
O3023      C3033   1.285       .  A
O3024     Eu3056   2.427       .  S
O3024      C3032   1.287       .  A
O3025     Eu3027   2.442       .  S
O3025      C3031   1.286       .  A
O3026     Eu3027   2.355       .  S
O3026      C3030   1.274       .  A
Eu3027     O3037   2.357       .  S
Eu3027     O3029   2.353       .  S
Eu3027     O3028   2.319       .  S
Eu3027     O3035   2.342       .  S
O3028     Eu3057   2.361       .  S
O3028     Eu3054   2.350       .  S
O3029     Eu3055   2.346       .  S
O3029     Eu3056   2.333       .  S
C3030      C3355   1.456       .  S
C3031      C3132   1.475       .  S
C3032      C3192   1.452       .  S
C3033      C3215   1.447       .  S
H3034      O3035   0.964       .  S
O3035     Eu3056   2.371       .  S
O3035     Eu3054   2.352       .  S
H3036      O3037   0.966       .  S
O3037     Eu3055   2.341       .  S
O3037     Eu3057   2.344       .  S
O3038     Eu3054   2.456       .  S
O3038      C3061   1.288       .  A
O3039     Eu3055   2.507       .  S
O3039      C3062   1.299       .  A
O3040     Eu3056   2.496       .  S
O3040      C3063   1.297       .  A
O3041     Eu3057   2.523       .  S
O3041      C3064   1.303       .  A
O3042     Eu3057   2.533       .  S
O3042      C3065   1.303       .  A
O3043     Eu3056   2.531       .  S
O3043      C3066   1.302       .  A
O3044     Eu3058   2.516       .  S
O3044      C3067   1.300       .  A
O3045     Eu3058   2.535       .  S
O3045      C3068   1.304       .  A
O3046     Eu3056   2.404       .  S
O3046      C3067   1.283       .  A
O3047     Eu3057   2.425       .  S
O3047      C3068   1.286       .  A
O3048     Eu3054   2.436       .  S
O3048      C3063   1.289       .  A
O3049     Eu3055   2.427       .  S
O3049      C3066   1.285       .  A
O3050     Eu3055   2.452       .  S
O3050      C3065   1.292       .  A
O3051     Eu3054   2.398       .  S
O3051      C3064   1.282       .  A
O3052     Eu3058   2.398       .  S
O3052      C3061   1.282       .  A
O3053     Eu3058   2.425       .  S
O3053      C3062   1.287       .  A
Eu3054     O3072   2.361       .  S
Eu3054     O3060   2.345       .  S
Eu3055     O3059   2.370       .  S
Eu3055     O3070   2.352       .  S
Eu3056     O3070   2.342       .  S
Eu3056     O3060   2.356       .  S
Eu3057     O3059   2.369       .  S
Eu3057     O3072   2.354       .  S
Eu3058     O3059   2.362       .  S
Eu3058     O3070   2.350       .  S
Eu3058     O3072   2.346       .  S
Eu3058     O3060   2.353       .  S
C3061      C3182   1.441       .  S
C3062      C3142   1.481       .  S
C3063      C3205   1.491       .  S
C3064      C3152   1.484       .  S
C3065      C3172   1.511       .  S
C3066      C3122   1.482       .  S
C3067      C3165   1.470       .  S
C3068      C3345   1.497       .  S
H3069      O3070   0.963       .  S
H3071      O3072   0.963       .  S
C3073      C3079   1.535       .  S
C3073      C3077   1.553       .  S
C3073      C3305   1.539       .  S
C3074      H3081   1.086       .  S
C3074      C3075   1.367       .  D
C3075      C3135   1.495       .  S
C3076      C3080   1.547       .  S
C3076      C3078   1.548       .  S
C3076      H3082   1.105       .  S
C3077      H3083   1.081   1_556  S
C3077      C3078   1.380       .  D
C3078      C3315   1.504   1_556  S
C3079      H3084   1.086       .  S
C3079      C3080   1.364       .  D
C3080      C3125   1.501       .  S
C3085      C3086   1.535   1_655  S
C3085      C3091   1.540       .  S
C3085      C3089   1.541       .  S
C3085      C3235   1.523       .  S
C3086      C3087   1.358       .  D
C3087      C3088   1.522   1_455  S
C3088      C3092   1.522       .  S
C3088      C3090   1.530       .  S
C3088      H3094   1.109       .  S
C3089      H3095   1.085       .  S
C3089      C3090   1.373       .  D
C3090      C3225   1.476       .  S
C3091      H3096   1.086       .  S
C3091      C3092   1.366       .  D
C3092      C3185   1.465       .  S
C3097      C3098   1.517       .  S
C3097      C3103   1.528       .  S
C3097      C3101   1.544       .  S
C3097      C3285   1.511       .  S
C3098      H3105   1.088       .  S
C3098      C3099   1.353       .  D
C3099      C3100   1.545       .  S
C3099      C3145   1.474       .  S
C3100      C3104   1.552   1_556  S
C3100      C3102   1.561       .  S
C3100      H3106   1.107       .  S
C3101      H3107   1.080       .  S
C3101      C3102   1.380       .  D
C3102      C3295   1.511       .  S
C3103      C3104   1.357   1_556  D
C3109      C3110   1.540       .  S
C3109      C3115   1.538       .  S
C3109      C3175   1.552       .  S
C3110      H3117   1.085       .  S
C3111      C3112   1.543   1_545  S
C3111      C3255   1.508   1_545  S
C3112      C3116   1.545       .  S
C3112      C3114   1.545       .  S
C3112      H3118   1.105       .  S
C3113      H3119   1.082       .  S
C3113      C3114   1.382       .  D
C3114      C3162   1.499       .  S
C3115      H3120   1.086       .  S
C3116      C3245   1.503       .  S
C3121      C3122   1.407       .  A
C3121      C3126   1.407       .  A
C3121      H3127   1.084       .  S
C3122      C3123   1.404       .  A
C3123      C3124   1.405       .  A
C3123      H3128   1.084       .  S
C3124      C3125   1.410       .  A
C3124      H3129   1.083       .  S
C3125      C3126   1.405       .  A
C3126      H3130   1.083       .  S
C3131      C3132   1.404       .  A
C3131      C3136   1.399       .  A
C3131      H3137   1.084       .  S
C3132      C3133   1.401       .  A
C3133      C3134   1.404       .  A
C3133      H3138   1.083       .  S
C3134      C3135   1.411       .  A
C3134      H3139   1.081       .  S
C3135      C3136   1.405       .  A
C3136      H3140   1.083       .  S
C3141      C3142   1.412       .  A
C3141      C3146   1.397       .  A
C3141      H3147   1.083       .  S
C3142      C3143   1.401       .  A
C3143      C3144   1.400       .  A
C3143      H3148   1.083       .  S
C3144      C3145   1.410       .  A
C3144      H3149   1.084       .  S
C3145      C3146   1.397       .  A
C3146      H3150   1.084       .  S
C3151      C3152   1.402       .  A
C3151      C3156   1.404       .  A
C3151      H3157   1.083       .  S
C3152      C3153   1.413       .  A
C3153      C3154   1.395       .  A
C3153      H3158   1.083       .  S
C3154      C3155   1.396       .  A
C3154      H3159   1.082       .  S
C3155      C3156   1.412       .  A
C3156      H3160   1.083       .  S
C3161      C3162   1.411       .  A
C3161      C3166   1.407       .  A
C3161      H3167   1.082       .  S
C3162      C3163   1.408       .  A
C3163      C3164   1.394       .  A
C3163      H3168   1.080       .  S
C3164      C3165   1.401       .  A
C3164      H3169   1.084       .  S
C3165      C3166   1.404       .  A
C3166      H3170   1.083       .  S
C3171      C3172   1.412       .  A
C3171      C3176   1.421       .  A
C3171      H3177   1.083       .  S
C3172      C3173   1.409       .  A
C3173      C3174   1.398       .  A
C3173      H3178   1.083       .  S
C3174      C3175   1.407       .  A
C3174      H3179   1.083       .  S
C3175      C3176   1.418       .  A
C3176      H3180   1.079       .  S
C3181      C3182   1.402       .  A
C3181      C3186   1.391       .  A
C3181      H3187   1.084       .  S
C3182      C3183   1.397       .  A
C3183      C3184   1.390       .  A
C3183      H3188   1.084       .  S
C3184      C3185   1.406       .  A
C3184      H3189   1.083       .  S
C3185      C3186   1.398       .  A
C3186      H3190   1.083       .  S
C3191      C3192   1.399       .  A
C3191      C3196   1.386       .  A
C3191      H3197   1.084       .  S
C3192      C3193   1.400       .  A
C3193      C3194   1.399       .  A
C3193      H3198   1.083       .  S
C3194      C3195   1.405       .  A
C3194      H3199   1.082       .  S
C3195      C3196   1.400       .  A
C3196      H3200   1.083       .  S
C3201      C3202   1.413       .  A
C3201      C3206   1.408       .  A
C3201      H3207   1.081       .  S
C3202      C3203   1.406       .  A
C3203      C3204   1.393       .  A
C3203      H3208   1.077       .  S
C3204      C3205   1.406       .  A
C3204      H3209   1.083       .  S
C3205      C3206   1.406       .  A
C3206      H3210   1.083       .  S
C3211      C3212   1.413       .  A
C3211      C3216   1.387       .  A
C3211      H3217   1.084       .  S
C3212      C3213   1.404       .  A
C3213      C3214   1.396       .  A
C3213      H3218   1.079       .  S
C3214      C3215   1.404       .  A
C3214      H3219   1.084       .  S
C3215      C3216   1.391       .  A
C3216      H3220   1.084       .  S
C3221      C3222   1.397       .  A
C3221      C3226   1.387       .  A
C3221      H3227   1.084       .  S
C3222      C3223   1.401       .  A
C3223      C3224   1.396       .  A
C3223      H3228   1.084       .  S
C3224      C3225   1.406       .  A
C3224      H3229   1.082       .  S
C3225      C3226   1.404       .  A
C3226      H3230   1.081       .  S
C3231      C3232   1.400       .  A
C3231      C3236   1.400       .  A
C3231      H3237   1.083       .  S
C3232      C3233   1.401   1_655  A
C3233      C3234   1.388       .  A
C3234      C3235   1.407   1_455  A
C3235      C3236   1.412       .  A
C3236      H3240   1.083       .  S
C3241      C3242   1.404       .  A
C3241      C3246   1.405       .  A
C3242      C3243   1.408       .  A
C3243      C3244   1.408       .  A
C3243      H3248   1.084       .  S
C3244      C3245   1.406       .  A
C3244      H3249   1.083       .  S
C3245      C3246   1.410       .  A
C3251      C3252   1.402       .  A
C3251      C3256   1.408       .  A
C3251      H3257   1.083       .  S
C3252      C3253   1.404   1_565  A
C3253      C3254   1.399       .  A
C3253      H3258   1.084       .  S
C3254      C3255   1.408   1_545  A
C3254      H3259   1.082       .  S
C3255      C3256   1.415       .  A
C3256      H3260   1.081       .  S
C3262      C3263   1.408       .  A
C3263      C3264   1.394       .  A
C3263      H3268   1.083       .  S
C3264      C3265   1.399       .  A
C3264      H3269   1.084       .  S
C3265      C3266   1.403       .  A
C3271      C3272   1.401       .  A
C3271      C3276   1.402       .  A
C3271      H3277   1.083       .  S
C3273      C3274   1.391       .  A
C3273      H3278   1.084       .  S
C3274      H3279   1.081       .  S
C3275      C3276   1.409       .  A
C3276      H3280   1.083       .  S
C3281      C3282   1.389       .  A
C3281      C3286   1.384       .  A
C3281      H3287   1.084       .  S
C3282      C3283   1.404       .  A
C3283      C3284   1.398       .  A
C3283      H3288   1.084       .  S
C3284      C3285   1.406       .  A
C3284      H3289   1.079       .  S
C3285      C3286   1.411       .  A
C3286      H3290   1.084       .  S
C3291      C3292   1.409       .  A
C3291      C3296   1.400       .  A
C3291      H3297   1.083       .  S
C3292      C3293   1.405       .  A
C3293      C3294   1.406       .  A
C3293      H3298   1.083       .  S
C3294      C3295   1.415       .  A
C3294      H3299   1.080       .  S
C3295      C3296   1.407       .  A
C3296      H3300   1.078       .  S
C3301      C3302   1.408   1_554  A
C3301      C3306   1.412       .  A
C3302      C3303   1.408       .  A
C3303      C3304   1.394       .  A
C3303      H3308   1.083       .  S
C3304      C3305   1.407       .  A
C3304      H3309   1.084       .  S
C3305      C3306   1.414   1_556  A
C3306      H3310   1.078       .  S
C3311      C3316   1.409       .  A
C3311      H3317   1.083       .  S
C3312      C3313   1.400       .  A
C3313      H3318   1.084       .  S
C3314      C3315   1.407   1_556  A
C3314      H3319   1.078       .  S
C3315      C3316   1.414       .  A
C3316      H3320   1.081       .  S
C3321      C3326   1.403       .  A
C3321      H3327   1.082       .  S
C3322      C3323   1.421   1_655  A
C3323      C3324   1.412       .  A
C3323      H3328   1.081       .  S
C3324      C3325   1.403   1_455  A
C3324      H3329   1.083       .  S
C3326      H3330   1.083       .  S
C3331      C3332   1.409   1_455  A
C3331      C3336   1.393       .  A
C3331      H3337   1.078       .  S
C3333      C3334   1.388       .  A
C3333      H3338   1.083       .  S
C3334      H3339   1.084       .  S
C3335      C3336   1.400       .  A
C3336      H3340   1.084       .  S
C3341      C3342   1.399       .  A
C3341      C3346   1.404       .  A
C3341      H3347   1.083       .  S
C3342      C3343   1.414       .  A
C3343      C3344   1.408       .  A
C3343      H3348   1.083       .  S
C3344      C3345   1.403       .  A
C3344      H3349   1.083       .  S
C3345      C3346   1.415       .  A
C3346      H3350   1.083       .  S
C3351      C3352   1.398       .  A
C3351      C3356   1.392       .  A
C3351      H3357   1.084       .  S
C3352      C3353   1.408       .  A
C3353      C3354   1.398       .  A
C3353      H3358   1.084       .  S
C3354      C3355   1.399       .  A
C3354      H3359   1.084       .  S
C3355      C3356   1.406       .  A
C3356      H3360   1.084       .  S
