geometry optimzed in LAMMPS
_audit_creation_date              2020-11-30 
_audit_creation_method            'lammps2cif' 
_symmetry_space_group_name_H-M    'P1' 
_symmetry_Int_Tables_number       1 
_symmetry_cell_setting            triclinic 
loop_ 
_symmetry_equiv_pos_as_xyz 
  x,y,z 
_cell_length_a                    52.66071081 
_cell_length_b                    56.68239229843325 
_cell_length_c                    56.07382172361662 
_cell_angle_alpha                 89.40413853227639 
_cell_angle_beta                  90.13372944160346 
_cell_angle_gamma                 87.53878329030304 
loop_ 
_atom_site_label 
_atom_site_type_symbol 
_atom_site_fract_x 
_atom_site_fract_y 
_atom_site_fract_z 
_atom_site_charge 
Zr1        Zr  0.79078720  0.76967232  0.76451298     2.17500
O2          O  0.83077291  0.78976395  0.76259222    -0.51300
O3          O  0.77751320  0.77940330  0.80499216    -0.74500
O4          O  0.78273540  0.81204114  0.76083035    -0.81300
O5          O  0.82688003  0.71307770  0.78486404    -0.83000
O6          O  0.75587393  0.81942817  0.72956642    -0.78700
O7          O  0.82467775  0.75306241  0.78884030    -0.90300
O8          O  0.73576085  0.77137324  0.80750274    -0.76300
O9          O  0.74609705  0.77601138  0.76162167    -0.85700
O10         O  0.77416227  0.73497316  0.78158563    -0.85400
O11         O  0.78282881  0.77492450  0.72249924    -0.72200
O12         O  0.80806753  0.73735069  0.74136282    -0.84300
Zr13       Zr  0.73648501  0.71407819  0.71387478     2.26400
Zr14       Zr  0.73757348  0.78101024  0.71991545     2.06300
Zr15       Zr  0.79093148  0.70262021  0.75861125     2.10000
Zr16       Zr  0.72944326  0.74113407  0.77826618     1.78800
O17         O  0.82743595  0.68056463  0.74224134    -0.93100
O18         O  0.68659937  0.75896189  0.78081363    -0.40900
O19         O  0.74541784  0.70811123  0.75562693    -0.77600
O20         O  0.71958176  0.74642158  0.73710461    -0.96300
O21         O  0.75335461  0.74838626  0.69623115    -0.89600
O22         O  0.78126413  0.70707299  0.71674500    -0.92400
C23         C  0.75598994  0.78008730  0.81570290     1.01300
C24         C  0.83468609  0.73256900  0.79353075     1.14300
C25         C  0.77091861  0.82617934  0.74615848     1.05100
O26         O  0.70375209  0.80701638  0.73562377    -0.94600
O27         O  0.69885483  0.77128737  0.69812239    -0.90300
O28         O  0.69860412  0.73123551  0.69532217    -0.83500
C29         C  0.68864250  0.75198512  0.69188624     1.11700
O30         O  0.83700889  0.76320510  0.69769787    -0.96500
Zr31       Zr  0.79808722  0.74158953  0.69957634     1.88900
O32         O  0.74916131  0.70133620  0.67435071    -0.73200
O33         O  0.73859739  0.80243715  0.68208173    -0.52400
O34         O  0.79978922  0.76852134  0.66555856    -0.97100
O35         O  0.83506150  0.71513435  0.69293733    -0.54300
O36         O  0.78561470  0.71897561  0.66472231    -0.73700
C37         C  0.76727426  0.70548947  0.65994425     0.98600
O38         O  0.69805580  0.69267054  0.70623539    -0.62500
O39         O  0.78958359  0.67780424  0.79431202    -0.57300
O40         O  0.74029437  0.67282295  0.72425480    -0.94000
O41         O  0.77198271  0.66431906  0.75092737    -0.92400
O42         O  0.73357041  0.72239617  0.81744291    -0.92800
O43         O  0.69670919  0.71261348  0.78421163    -0.91600
C44         C  0.75352772  0.65841919  0.73737587     1.17500
H45         H  0.77913172  0.73306537  0.79810646     0.33400
H46         H  0.70127125  0.74745304  0.73638061     0.44300
H47         H  0.78661916  0.69302673  0.70819770     0.37800
H48         H  0.79110962  0.78872681  0.71672028     0.34300
H49         H  0.68471175  0.76372630  0.79767432     0.26100
H50         H  0.73159226  0.81848283  0.68573164     0.32000
H51         H  0.78209774  0.76998664  0.65954275     0.37900
H52         H  0.74286476  0.70715316  0.81451037     0.32400
H53         H  0.80528998  0.66758435  0.79364710     0.31300
H54         H  0.83045621  0.66710622  0.75343172     0.32900
H55         H  0.83955832  0.71775141  0.67600635     0.31900
H56         H  0.69075615  0.70909437  0.76791574     0.35900
H57         H  0.70323952  0.67923106  0.69591560     0.28600
H58         H  0.82904863  0.80295139  0.77399720     0.32900
H59         H  0.84140056  0.76606910  0.71456815     0.35700
H60         H  0.79235649  0.68853535  0.80780076     0.28300
H61         H  0.69328828  0.68547976  0.72166899     0.41200
H62         H  0.70909271  0.81040438  0.75214150     0.31300
H63         H  0.68731555  0.77402978  0.77181500     0.38900
H64         H  0.82855868  0.69901487  0.69336728     0.30700
H65         H  0.75687236  0.80456392  0.67905373     0.30800
H66         H  0.83079109  0.79744033  0.74665138     0.31100
C67         C  0.87806861  0.99235919  0.78888041     0.86500
C68         C  0.86117204  0.97104921  0.78711104    -0.53700
C69         C  0.84708871  0.97034617  0.76657769     0.09400
C70         C  0.85098474  0.99178992  0.74970135     0.20400
C71         C  0.89401203  0.99173705  0.76598774    -0.54400
C72         C  0.88004818  0.99169856  0.74536480     0.09500
C73         C  0.85954194  0.01380752  0.78578781    -0.54000
C74         C  0.84525296  0.01363776  0.76544769     0.10100
H75         H  0.86066110  0.95747461  0.80089508     0.14600
H76         H  0.83932518  0.99165135  0.73320457     0.00400
H77         H  0.91463167  0.99187904  0.76613963     0.14900
H78         H  0.85780641  0.02801213  0.79861343     0.14700
Zr79       Zr  0.76577699  0.21096993  0.71404327     2.17500
O80         O  0.80785126  0.19123664  0.71237912    -0.51300
O81         O  0.75396436  0.19645425  0.67502529    -0.74500
O82         O  0.76544156  0.16931458  0.72507490    -0.81300
O83         O  0.79591797  0.26870017  0.69623683    -0.83000
O84         O  0.73675146  0.16392138  0.75468421    -0.78700
O85         O  0.80091776  0.22864844  0.69383535    -0.90300
O86         O  0.71624887  0.21531800  0.66583788    -0.76300
O87         O  0.72173098  0.20402102  0.71822263    -0.85700
O88         O  0.74449319  0.24444151  0.69545997    -0.85400
O89         O  0.75898723  0.20834533  0.75633167    -0.72200
O90         O  0.77864511  0.24549300  0.73447159    -0.84300
Zr91       Zr  0.70550271  0.26934849  0.76284073     2.26400
Zr92       Zr  0.71419758  0.20232997  0.76046043     2.06300
Zr93       Zr  0.75626843  0.27890570  0.71661217     2.10000
Zr94       Zr  0.70061667  0.23752524  0.69992600     1.78800
O95         O  0.78953158  0.30620305  0.72500441    -0.93100
O96         O  0.66814786  0.20849595  0.69554177    -0.40900
O97         O  0.71212232  0.27224357  0.72068877    -0.77600
O98         O  0.69168840  0.23541090  0.74180724    -0.96300
O99         O  0.72732774  0.23646497  0.78129903    -0.89600
O100        O  0.74937860  0.27668696  0.75865979    -0.92400
C101        C  0.73544299  0.20160289  0.66075974     1.01300
C102        C  0.80831836  0.24964750  0.69025529     1.14300
C103        C  0.75441843  0.15635612  0.74048400     1.05100
O104        O  0.68075154  0.17812001  0.74542065    -0.94600
O105        O  0.67731750  0.21196278  0.78607543    -0.90300
O106        O  0.67260901  0.25200992  0.78586515    -0.83500
C107        C  0.66569288  0.23150857  0.79198531     1.11700
O108        O  0.81324856  0.22373972  0.77973557    -0.96500
Zr109      Zr  0.77124942  0.24316912  0.77623848     1.88900
O110        O  0.71830260  0.28128532  0.80259158    -0.73200
O111        O  0.71726433  0.18151202  0.79867284    -0.52400
O112        O  0.77376657  0.21722354  0.81112434    -0.97100
O113        O  0.80600642  0.27001878  0.77974622    -0.54300
O114        O  0.75868986  0.26714195  0.80955622    -0.73700
C115        C  0.73831524  0.27851947  0.81563761     0.98600
O116        O  0.66570022  0.29309696  0.76316747    -0.62500
O117        O  0.74745811  0.29694790  0.67766346    -0.57300
O118        O  0.70290862  0.31071986  0.75194116    -0.94000
O119        O  0.73453380  0.31730037  0.72544345    -0.92400
O120        O  0.69470736  0.26216968  0.66436635    -0.92800
O121        O  0.65957685  0.25866615  0.69559160    -0.91600
C122        C  0.71529227  0.32423438  0.73819330     1.17500
H123        H  0.74918400  0.24586509  0.67887699     0.33400
H124        H  0.67357788  0.23399906  0.74355708     0.44300
H125        H  0.75367972  0.29118838  0.76628618     0.37800
H126        H  0.76899939  0.19531499  0.76319298     0.34300
H127        H  0.65514378  0.21268298  0.70768418     0.26100
H128        H  0.70836586  0.16668934  0.79619641     0.32000
H129        H  0.75596281  0.21602217  0.81649220     0.37900
H130        H  0.70177351  0.27745715  0.66868429     0.32400
H131        H  0.75339265  0.31322533  0.67895494     0.31300
H132        H  0.78846537  0.31785293  0.71172064     0.32900
H133        H  0.79790485  0.28529134  0.78462315     0.31900
H134        H  0.65780495  0.26820047  0.71023495     0.35900
H135        H  0.65251640  0.28272008  0.75711887     0.28600
H136        H  0.80611425  0.17745968  0.70187130     0.32900
H137        H  0.81861530  0.22090101  0.76305868     0.35700
H138        H  0.75969885  0.28899781  0.66669010     0.28300
H139        H  0.66145796  0.29571175  0.78016290     0.41200
H140        H  0.67541257  0.16882319  0.75944448     0.31300
H141        H  0.65981323  0.21248777  0.68008413     0.38900
H142        H  0.81155776  0.27279723  0.76312879     0.30700
H143        H  0.73541747  0.17646990  0.80037270     0.30800
H144        H  0.81101544  0.18447351  0.72852372     0.31100
C145        C  0.65658988  0.52453053  0.73371030     0.86500
C146        C  0.64085058  0.52591323  0.75649625    -0.53700
C147        C  0.62368854  0.50870184  0.75905166     0.09400
C148        C  0.62367507  0.49127576  0.73772532     0.20400
C149        C  0.66869487  0.49947126  0.73370847    -0.54400
C150        C  0.65175590  0.48188395  0.73568958     0.09500
C151        C  0.63669789  0.52468260  0.71358632    -0.54000
C152        C  0.61945806  0.50735181  0.71524864     0.10100
H153        H  0.64329127  0.53949178  0.76975209     0.14600
H154        H  0.60961914  0.47734470  0.73948204     0.00400
H155        H  0.68906380  0.49598930  0.73211245     0.14900
H156        H  0.63608652  0.53740976  0.69903567     0.14700
C157        C  0.75593443  0.64466398  0.46500047     0.86500
C158        C  0.72890945  0.63600140  0.46435838    -0.53700
C159        C  0.72344877  0.62067878  0.48229497     0.09400
C160        C  0.74598463  0.61533245  0.49965305     0.20400
C161        C  0.75929839  0.65501696  0.48983963    -0.54400
C162        C  0.75404902  0.63983197  0.50809436     0.09500
C163        C  0.77286340  0.62214043  0.46502800    -0.54000
C164        C  0.76793511  0.60671271  0.48311647     0.10100
H165        H  0.71527973  0.64133544  0.45053209     0.14600
H166        H  0.74187407  0.60275841  0.51431577     0.00400
H167        H  0.76542019  0.67282588  0.49272287     0.14900
H168        H  0.78784539  0.61879260  0.45205288     0.14700
Zr169      Zr  0.70759221  0.78998640  0.22038490     2.17500
O170        O  0.66608919  0.81055248  0.22393688    -0.51300
O171        O  0.71542642  0.80299138  0.17927777    -0.74500
O172        O  0.70976797  0.83192697  0.22971963    -0.81300
O173        O  0.67551158  0.73270808  0.20416547    -0.83000
O174        O  0.74022978  0.83658265  0.25789766    -0.78700
O175        O  0.67052222  0.77283394  0.20270026    -0.90300
O176        O  0.75105341  0.78297558  0.16633980    -0.76300
O177        O  0.75192226  0.79650856  0.21936778    -0.85700
O178        O  0.72626140  0.75636375  0.20083927    -0.85400
O179        O  0.72014052  0.79219698  0.26159061    -0.72200
O180        O  0.69728474  0.75586419  0.24375952    -0.84300
Zr181      Zr  0.77463485  0.73054430  0.26268842     2.26400
Zr182      Zr  0.76498139  0.79839598  0.26035730     2.06300
Zr183      Zr  0.71625058  0.72229498  0.22386920     2.10000
Zr184      Zr  0.77058899  0.76278009  0.20001958     1.78800
O185        O  0.68493917  0.69688580  0.24140206    -0.93100
O186        O  0.80008894  0.79399997  0.19265616    -0.40900
O187        O  0.76104442  0.72789485  0.22204985    -0.77600
O188        O  0.78491362  0.76514953  0.24019774    -0.96300
O189        O  0.75593127  0.76369571  0.28303695    -0.89600
O190        O  0.73028414  0.72408160  0.26446393    -0.92400
C191        C  0.73168216  0.79702828  0.16310380     1.01300
C192        C  0.66294450  0.75200796  0.19857824     1.14300
C193        C  0.72145247  0.84452944  0.24482327     1.05100
O194        O  0.79422450  0.82488802  0.24145120    -0.94600
O195        O  0.80564993  0.78819529  0.28070847    -0.90300
O196        O  0.81081247  0.74803036  0.28156907    -0.83500
C197        C  0.81828562  0.76880543  0.28602788     1.11700
O198        O  0.66958569  0.77397262  0.29361467    -0.96500
Zr199      Zr  0.71176474  0.75744803  0.28425673     1.88900
O200        O  0.76952227  0.71859223  0.30388534    -0.73200
O201        O  0.76697597  0.81742282  0.29901959    -0.52400
O202        O  0.71058432  0.78569923  0.31673513    -0.97100
O203        O  0.68046663  0.72847721  0.29414133    -0.54300
O204        O  0.73330766  0.73715665  0.31737409    -0.73700
C205        C  0.75352809  0.72402952  0.32033984     0.98600
O206        O  0.81417860  0.70773323  0.25471824    -0.62500
O207        O  0.71582648  0.70336078  0.18509334    -0.57300
O208        O  0.77069216  0.68835115  0.25567657    -0.94000
O209        O  0.73942349  0.68379336  0.22817017    -0.92400
O210        O  0.77465275  0.73775866  0.16505786    -0.92800
O211        O  0.81272913  0.74426735  0.19426453    -0.91600
C212        C  0.75783994  0.67570025  0.24150551     1.17500
H213        H  0.71947115  0.75479583  0.18494358     0.33400
H214        H  0.80309567  0.76671300  0.23966357     0.44300
H215        H  0.72720649  0.70961967  0.27304723     0.37800
H216        H  0.71093752  0.80509980  0.26927038     0.34300
H217        H  0.80915264  0.78931911  0.17788466     0.26100
H218        H  0.77246285  0.83358049  0.29550288     0.32000
H219        H  0.72731746  0.78354413  0.32473606     0.37900
H220        H  0.77585166  0.72141008  0.17148919     0.32400
H221        H  0.73352866  0.69733798  0.18254855     0.31300
H222        H  0.69439787  0.68703025  0.25340640     0.32900
H223        H  0.69037466  0.71365297  0.29783448     0.31900
H224        H  0.81622176  0.73509323  0.20911010     0.35900
H225        H  0.81196979  0.70101634  0.23864616     0.28600
H226        H  0.66625884  0.82418160  0.21274852     0.32900
H227        H  0.66223044  0.77880520  0.27795440     0.35700
H228        H  0.70601868  0.68903506  0.18764172     0.28300
H229        H  0.82744884  0.71936026  0.25229511     0.41200
H230        H  0.80212460  0.83311933  0.25487970     0.31300
H231        H  0.78925219  0.80796196  0.18786002     0.38900
H232        H  0.67184225  0.72544198  0.27883873     0.30700
H233        H  0.74903796  0.81961575  0.30407187     0.30800
H234        H  0.66572237  0.81751098  0.24007164     0.31100
C235        C  0.75205463  0.85150708  0.96481747     0.86500
C236        C  0.77725020  0.86385181  0.96625438    -0.53700
C237        C  0.77934422  0.87809163  0.98549983     0.09400
C238        C  0.75566453  0.87892177  0.00158307     0.20400
C239        C  0.74969591  0.83853914  0.98889979    -0.54400
C240        C  0.75123469  0.85301339  0.00823974     0.09500
C241        C  0.73159989  0.87166445  0.96550015    -0.54000
C242        C  0.73346164  0.88581251  0.98487569     0.10100
H243        H  0.79225130  0.86144504  0.95312149     0.14600
H244        H  0.75710537  0.89088506  0.01695219     0.00400
H245        H  0.74616462  0.81984975  0.99041812     0.14900
H246        H  0.71631772  0.87393892  0.95252899     0.14700
C247        C  0.48996099  0.72821284  0.07328346     0.86500
C248        C  0.46741578  0.73138391  0.09032168    -0.53700
C249        C  0.46925477  0.74963792  0.10594337     0.09400
C250        C  0.49400084  0.76308583  0.10295778     0.20400
C251        C  0.49187848  0.75222893  0.06098041    -0.54400
C252        C  0.49405032  0.77057454  0.07634977     0.09500
C253        C  0.51325665  0.72559882  0.08959641    -0.54000
C254        C  0.51556804  0.74370210  0.10534264     0.10100
H255        H  0.45109751  0.72034483  0.08971875     0.14600
H256        H  0.49567602  0.77795302  0.11553036     0.00400
H257        H  0.49181095  0.75440101  0.04171493     0.14900
H258        H  0.52672194  0.71061846  0.08854068     0.14700
C259        C  0.34868036  0.96149655  0.75935215     0.86500
C260        C  0.36408418  0.96154125  0.78247139    -0.53700
C261        C  0.37894891  0.98059654  0.78508942     0.09400
C262        C  0.37701492  0.99810221  0.76340022     0.20400
C263        C  0.33362247  0.98509843  0.75877087    -0.54400
C264        C  0.34808469  0.00438492  0.76085701     0.09500
C265        C  0.36842268  0.96356426  0.73953806    -0.54000
C266        C  0.38333070  0.98269391  0.74110606     0.10100
H267        H  0.36269420  0.94778586  0.79596484     0.14600
H268        H  0.38904587  0.01358509  0.76513488     0.00400
H269        H  0.31308221  0.98637725  0.75673468     0.14900
H270        H  0.37007388  0.95106032  0.72502423     0.14700
C271        C  0.73966085  0.33496535  0.97111629     0.86500
C272        C  0.75894285  0.35437058  0.97228080    -0.53700
C273        C  0.75888152  0.36611980  0.99334733     0.09400
C274        C  0.73907421  0.35771805  0.01129401     0.20400
C275        C  0.74527684  0.31895313  0.99280489    -0.54400
C276        C  0.74480866  0.33086444  0.01391495     0.09500
C277        C  0.71416464  0.34750648  0.97666960    -0.54000
C278        C  0.71367719  0.35954485  0.99756437     0.10100
H279        H  0.77169687  0.35837370  0.95772191     0.14600
H280        H  0.73873561  0.36752812  0.02834772     0.00400
H281        H  0.74891637  0.30000735  0.99156767     0.14900
H282        H  0.69808141  0.34775085  0.96451764     0.14700
C283        C  0.22970834  0.64657529  0.02659106     0.86500
C284        C  0.25305319  0.62978867  0.02476562    -0.53700
C285        C  0.25326230  0.61559191  0.00539027     0.09400
C286        C  0.22993769  0.61967602  0.98907279     0.20400
C287        C  0.22911335  0.66035629  0.00295753    -0.54400
C288        C  0.22921713  0.64626488  0.98330235     0.09500
C289        C  0.20710624  0.63036309  0.02554038    -0.54000
C290        C  0.20723423  0.61633425  0.00576299     0.10100
H291        H  0.26847714  0.62932986  0.03764413     0.14600
H292        H  0.23015306  0.60817103  0.97314505     0.00400
H293        H  0.22888317  0.67950739  0.00188860     0.14900
H294        H  0.19252270  0.62989498  0.03917925     0.14700
C295        C  0.14771628  0.51716646  0.75557854     0.86500
C296        C  0.12878808  0.51427152  0.77608547    -0.53700
C297        C  0.11339237  0.49555819  0.77406440     0.09400
C298        C  0.11852529  0.48114053  0.75087283     0.20400
C299        C  0.16233001  0.49328481  0.75429794    -0.54400
C300        C  0.14735635  0.47421981  0.75206672     0.09500
C301        C  0.13114576  0.51845917  0.73314728    -0.54000
C302        C  0.11602982  0.49972317  0.73011963     0.10100
H303        H  0.12754339  0.52589823  0.79126715     0.14600
H304        H  0.10613663  0.46592415  0.74884010     0.00400
H305        H  0.18292327  0.49179520  0.75516680     0.14900
H306        H  0.13186715  0.53286643  0.72025927     0.14700
C307        C  0.73501966  0.15646523  0.46163146     0.86500
C308        C  0.71101558  0.14226720  0.46459724    -0.53700
C309        C  0.71286196  0.12532744  0.48217919     0.09400
C310        C  0.73918181  0.12346678  0.49434633     0.20400
C311        C  0.74040171  0.16565490  0.48655479    -0.54400
C312        C  0.74227870  0.14857823  0.50378773     0.09500
C313        C  0.75624457  0.13800993  0.45672189    -0.54000
C314        C  0.75873825  0.12067198  0.47380347     0.10100
H315        H  0.69357539  0.14609765  0.45479762     0.14600
H316        H  0.74089251  0.10955505  0.50841640     0.00400
H317        H  0.74104432  0.18436462  0.49047444     0.14900
H318        H  0.76878910  0.13930461  0.44148902     0.14700
C319        C  0.00028165  0.77827615  0.40131844     0.86500
C320        C  0.97517418  0.78029102  0.38752720    -0.53700
C321        C  0.97220190  0.76306962  0.37104073     0.09400
C322        C  0.99510846  0.74478897  0.37015955     0.20400
C323        C  0.00155712  0.75334399  0.41235786    -0.54400
C324        C  0.99892375  0.73572170  0.39610140     0.09500
C325        C  0.02069855  0.77750422  0.38199517    -0.54000
C326        C  0.01840689  0.75994747  0.36584355     0.10100
H327        H  0.96113918  0.79462290  0.39022814     0.14600
H328        H  0.99320416  0.73058199  0.35687277     0.00400
H329        H  0.00496020  0.74991072  0.43121254     0.14900
H330        H  0.03633672  0.78939283  0.38150041     0.14700
Zr331      Zr  0.27889507  0.73965733  0.21941119     2.17500
O332        O  0.32022300  0.71941255  0.21329665    -0.51300
O333        O  0.26429119  0.72805377  0.18020150    -0.74500
O334        O  0.27954095  0.69721141  0.22753370    -0.81300
O335        O  0.31166431  0.79817103  0.20359533    -0.83000
O336        O  0.25092778  0.68882369  0.25626554    -0.78700
O337        O  0.31302689  0.75826071  0.19949192    -0.90300
O338        O  0.22540887  0.74542237  0.17267265    -0.76300
O339        O  0.23482784  0.73338575  0.22227021    -0.85700
O340        O  0.25873704  0.77477234  0.20311827    -0.85400
O341        O  0.27246836  0.73360976  0.26128202    -0.72200
O342        O  0.29329787  0.77196548  0.24257798    -0.84300
Zr343      Zr  0.21978217  0.79415491  0.27146424     2.26400
Zr344      Zr  0.22776369  0.72717169  0.26411974     2.06300
Zr345      Zr  0.27223590  0.80714823  0.22667683     2.10000
Zr346      Zr  0.21449275  0.76886089  0.20681167     1.78800
O347        O  0.30287908  0.83426814  0.24206480    -0.93100
O348        O  0.17820749  0.74409928  0.20195930    -0.40900
O349        O  0.22759579  0.80126108  0.23001338    -0.77600
O350        O  0.20587003  0.76210850  0.24783098    -0.96300
O351        O  0.24082562  0.75963986  0.28782731    -0.89600
O352        O  0.26392645  0.80140033  0.26839424    -0.92400
C353        C  0.24451548  0.73202184  0.16708601     1.01300
C354        C  0.32203940  0.77858953  0.19599456     1.14300
C355        C  0.26887586  0.68263053  0.24163110     1.05100
O356        O  0.19733748  0.69995251  0.24866992    -0.94600
O357        O  0.18772537  0.73531140  0.28586758    -0.90300
O358        O  0.18464541  0.77519796  0.29046538    -0.83500
C359        C  0.17607486  0.75445597  0.29294626     1.11700
O360        O  0.32708629  0.74746773  0.28537192    -0.96500
Zr361      Zr  0.28486322  0.76671885  0.28414607     1.88900
O362        O  0.22953256  0.80124514  0.31268398    -0.73200
O363        O  0.23219873  0.70714080  0.30259276    -0.52400
O364        O  0.29058198  0.73863651  0.31706611    -0.97100
O365        O  0.31891043  0.79379865  0.29048129    -0.54300
O366        O  0.26991557  0.78715861  0.31961099    -0.73700
C367        C  0.24897931  0.79751956  0.32611274     0.98600
O368        O  0.18101531  0.81933387  0.27175526    -0.62500
O369        O  0.26691180  0.82860977  0.18904278    -0.57300
O370        O  0.22177556  0.83664427  0.26701752    -0.94000
O371        O  0.24853998  0.84459550  0.23640471    -0.92400
O372        O  0.21044663  0.79535016  0.17234038    -0.92800
O373        O  0.17487253  0.79271223  0.20610908    -0.91600
C374        C  0.23211735  0.85096667  0.25244619     1.17500
H375        H  0.26344337  0.77697802  0.18663878     0.33400
H376        H  0.18767630  0.76087286  0.24858721     0.44300
H377        H  0.26817838  0.81512769  0.27741192     0.37800
H378        H  0.28246696  0.72006016  0.26707392     0.34300
H379        H  0.17455331  0.74453406  0.18462831     0.26100
H380        H  0.22342605  0.69218772  0.30053919     0.32000
H381        H  0.27340062  0.73736327  0.32396692     0.37900
H382        H  0.22599508  0.79220114  0.16280379     0.32400
H383        H  0.24831580  0.83157808  0.18743221     0.31300
H384        H  0.31981255  0.82719711  0.23802275     0.32900
H385        H  0.31071960  0.80777631  0.29819789     0.31900
H386        H  0.17953823  0.80851331  0.21157950     0.35900
H387        H  0.16750857  0.80974991  0.26500171     0.28600
H388        H  0.31737267  0.70668233  0.20174668     0.32900
H389        H  0.32942754  0.74063874  0.26930267     0.35700
H390        H  0.27362416  0.84434147  0.19215734     0.28300
H391        H  0.17655392  0.82130172  0.28879036     0.41200
H392        H  0.20453729  0.69458060  0.23325529     0.31300
H393        H  0.18505337  0.72782680  0.20511261     0.38900
H394        H  0.32333250  0.79938946  0.27429553     0.30700
H395        H  0.25044934  0.70226696  0.30369696     0.30800
H396        H  0.32460089  0.71123157  0.22854687     0.31100
C397        C  0.24643592  0.85871197  0.47958068     0.86500
C398        C  0.26608852  0.87763224  0.47890192    -0.53700
C399        C  0.26850618  0.88959255  0.49964368     0.09400
C400        C  0.25016427  0.88161209  0.51951914     0.20400
C401        C  0.25360911  0.84283607  0.50100152    -0.54400
C402        C  0.25550155  0.85462502  0.52198130     0.09500
C403        C  0.22174166  0.87167726  0.48689802    -0.54000
C404        C  0.22328617  0.88352836  0.50796841     0.10100
H405        H  0.27807175  0.88050045  0.46347556     0.14600
H406        H  0.25166754  0.89125741  0.53656618     0.00400
H407        H  0.25597607  0.82374533  0.49981702     0.14900
H408        H  0.20419668  0.87077103  0.47679231     0.14700
C409        C  0.88029115  0.51391225  0.26896490     0.86500
C410        C  0.86720795  0.49044699  0.27028863    -0.53700
C411        C  0.85107788  0.48653828  0.25185403     0.09400
C412        C  0.84922102  0.50714724  0.23329112     0.20400
C413        C  0.89312476  0.51419222  0.24430475    -0.54400
C414        C  0.87697353  0.51082507  0.22543119     0.09500
C415        C  0.85833053  0.53248658  0.26690310    -0.54000
C416        C  0.84215133  0.52932719  0.24830716     0.10100
H417        H  0.87057784  0.47777634  0.28476034     0.14600
H418        H  0.83589151  0.50432166  0.21831652     0.00400
H419        H  0.91321978  0.51710156  0.24209294     0.14900
H420        H  0.85579175  0.54743123  0.27866465     0.14700
Zr421      Zr  0.77987335  0.28514394  0.22273220     2.17500
O422        O  0.78740029  0.31455598  0.19171393    -0.51300
O423        O  0.82478213  0.27688242  0.21527665    -0.74500
O424        O  0.79048471  0.32344571  0.23808679    -0.81300
O425        O  0.74639643  0.24839413  0.17409860    -0.83000
O426        O  0.78477965  0.32395016  0.27818529    -0.78700
O427        O  0.76777953  0.28144422  0.18179691    -0.90300
O428        O  0.83617946  0.24293478  0.23503183    -0.76300
O429        O  0.79710589  0.27288022  0.26018611    -0.85700
O430        O  0.78420257  0.24313178  0.22032245    -0.85400
O431        O  0.74863187  0.29972213  0.25062390    -0.72200
O432        O  0.73834229  0.27122796  0.21473301    -0.84300
Zr433      Zr  0.72825447  0.23054429  0.27933786     2.26400
Zr434      Zr  0.76573714  0.28640302  0.28831890     2.06300
Zr435      Zr  0.74246710  0.22895692  0.21311050     2.10000
Zr436      Zr  0.80036858  0.23088428  0.25836634     1.78800
O437        O  0.70619783  0.22098967  0.18785761    -0.93100
O438        O  0.83304413  0.23731878  0.28819993    -0.40900
O439        O  0.75906723  0.21623547  0.25106785    -0.77600
O440        O  0.77010516  0.24391538  0.28768832    -0.96300
O441        O  0.72405929  0.27243673  0.28109771    -0.89600
O442        O  0.71148392  0.24254324  0.24161085    -0.92400
C443        C  0.84076914  0.26007411  0.22084998     1.01300
C444        C  0.75635546  0.26780279  0.16772057     1.14300
C445        C  0.79129330  0.33358921  0.25836158     1.05100
O446        O  0.80301965  0.28877132  0.31382063    -0.94600
O447        O  0.75507222  0.27168972  0.32758961    -0.90300
O448        O  0.72888871  0.24145664  0.32097277    -0.83500
C449        C  0.74036805  0.25558672  0.33460354     1.11700
O450        O  0.70058940  0.31736260  0.21535623    -0.96500
Zr451      Zr  0.70765886  0.28452167  0.24325001     1.88900
O452        O  0.68285723  0.23838085  0.28453895    -0.73200
O453        O  0.74104622  0.31725608  0.30887211    -0.52400
O454        O  0.69174788  0.32058022  0.26240480    -0.97100
O455        O  0.67547305  0.27569645  0.21373291    -0.54300
O456        O  0.67236059  0.27422520  0.26802744    -0.73700
C457        C  0.66722387  0.25591318  0.28030826     0.98600
O458        O  0.72760771  0.19595865  0.30557087    -0.62500
O459        O  0.77082951  0.20116949  0.19224459    -0.57300
O460        O  0.71739096  0.19207922  0.26426652    -0.94000
O461        O  0.72372688  0.19104988  0.22417637    -0.92400
O462        O  0.81656079  0.19541536  0.23835158    -0.92800
O463        O  0.80702183  0.19602076  0.28373874    -0.91600
C464        C  0.71673373  0.18164078  0.24404373     1.17500
H465        H  0.79555030  0.23841584  0.20756313     0.33400
H466        H  0.77594928  0.23784125  0.30298313     0.44300
H467        H  0.69534671  0.23563533  0.23863173     0.37800
H468        H  0.74632067  0.31669870  0.24997385     0.34300
H469        H  0.83809588  0.25374278  0.28541542     0.26100
H470        H  0.75362302  0.32546703  0.31855938     0.32000
H471        H  0.67351913  0.32206378  0.25800614     0.37900
H472        H  0.81896994  0.20026513  0.22152675     0.32400
H473        H  0.77237517  0.18717859  0.20294738     0.31300
H474        H  0.71086057  0.20587736  0.17995881     0.32900
H475        H  0.66380460  0.26506878  0.22195095     0.31900
H476        H  0.79253967  0.19659054  0.29497409     0.35900
H477        H  0.74284554  0.19678100  0.31585729     0.28600
H478        H  0.80475864  0.32001889  0.19449921     0.32900
H479        H  0.71303388  0.31427601  0.20242842     0.35700
H480        H  0.76073228  0.19593791  0.17851315     0.28300
H481        H  0.71297403  0.19885360  0.31637077     0.41200
H482        H  0.79808897  0.30076073  0.32586475     0.31300
H483        H  0.82393014  0.23786627  0.30361896     0.38900
H484        H  0.68456488  0.26550739  0.20201189     0.30700
H485        H  0.73584351  0.32878681  0.29621119     0.30800
H486        H  0.77583297  0.32833316  0.19516611     0.31100
C487        C  0.60511215  0.01758874  0.28710141     0.86500
C488        C  0.62357565  0.03783516  0.28463883    -0.53700
C489        C  0.63907119  0.03673283  0.26511087     0.09400
C490        C  0.63490277  0.01464008  0.24964931     0.20400
C491        C  0.59076855  0.01799031  0.26299967    -0.54400
C492        C  0.60624217  0.01633914  0.24331070     0.09500
C493        C  0.62236522  0.99506673  0.28655034    -0.54000
C494        C  0.63789438  0.99316420  0.26707643     0.10100
H495        H  0.62386339  0.05260526  0.29667852     0.14600
H496        H  0.64767042  0.01340634  0.23395247     0.00400
H497        H  0.57018419  0.01938543  0.26168224     0.14900
H498        H  0.62180369  0.98137998  0.30022218     0.14700
C499        C  0.48984210  0.22775383  0.91335686     0.86500
C500        C  0.51330173  0.22494356  0.89775645    -0.53700
C501        C  0.51631702  0.24302605  0.88193441     0.09400
C502        C  0.49482487  0.26282261  0.88340759     0.20400
C503        C  0.49185144  0.25150092  0.92538755    -0.54400
C504        C  0.49401666  0.27013829  0.91002852     0.09500
C505        C  0.46767090  0.23111140  0.89576393    -0.54000
C506        C  0.46999795  0.24949567  0.88010078     0.10100
H507        H  0.52642390  0.20965534  0.89911047     0.14600
H508        H  0.49682170  0.27770736  0.87062206     0.00400
H509        H  0.49106373  0.25320475  0.94462189     0.14900
H510        H  0.45146477  0.21988395  0.89558450     0.14700
Zr511      Zr  0.20766376  0.26122381  0.72912117     2.17500
O512        O  0.16440101  0.27842020  0.72694411    -0.51300
O513        O  0.21746250  0.27347792  0.68885255    -0.74500
O514        O  0.20485686  0.30356091  0.73565505    -0.81300
O515        O  0.17839805  0.20066295  0.71945164    -0.83000
O516        O  0.23866144  0.31389070  0.75797325    -0.78700
O517        O  0.17454958  0.23988493  0.71020502    -0.90300
O518        O  0.25491069  0.25546535  0.67786074    -0.76300
O519        O  0.25159531  0.26938641  0.72748228    -0.85700
O520        O  0.22804951  0.22648935  0.71335117    -0.85400
O521        O  0.21891908  0.26930794  0.76954463    -0.72200
O522        O  0.19755113  0.22968479  0.75577503    -0.84300
Zr523      Zr  0.27527691  0.21103218  0.77919179     2.26400
Zr524      Zr  0.26342997  0.27715653  0.76796714     2.06300
Zr525      Zr  0.21908606  0.19493617  0.74045367     2.10000
Zr526      Zr  0.27195060  0.23424469  0.71233292     1.78800
O527        O  0.18940063  0.16980204  0.76077552    -0.93100
O528        O  0.30630358  0.25932248  0.70047107    -0.40900
O529        O  0.26362176  0.20236424  0.73901156    -0.77600
O530        O  0.28497984  0.24248975  0.75207810    -0.96300
O531        O  0.25458376  0.24547775  0.79508547    -0.89600
O532        O  0.23152759  0.20230088  0.78081012    -0.92400
C533        C  0.23519258  0.26889987  0.67378400     1.01300
C534        C  0.16697282  0.21872841  0.70952405     1.14300
C535        C  0.21772983  0.31882556  0.74661551     1.05100
O536        O  0.29268924  0.30390108  0.74941920    -0.94600
O537        O  0.30482413  0.27205626  0.78855249    -0.90300
O538        O  0.31105058  0.23236485  0.79332269    -0.83500
C539        C  0.31819457  0.25360343  0.79533970     1.11700
O540        O  0.16734733  0.25245379  0.80206422    -0.96500
Zr541      Zr  0.21070679  0.23713000  0.79574558     1.88900
O542        O  0.26635667  0.19940373  0.82002924    -0.73200
O543        O  0.25959961  0.29988352  0.80448884    -0.52400
O544        O  0.20706699  0.26908332  0.82441726    -0.97100
O545        O  0.18126321  0.20769930  0.80906582    -0.54300
O546        O  0.23153538  0.22152036  0.83104509    -0.73700
C547        C  0.25049321  0.20734412  0.83555147     0.98600
O548        O  0.31659141  0.19207059  0.78880507    -0.62500
O549        O  0.22171284  0.16992533  0.70535397    -0.57300
O550        O  0.27941695  0.16992788  0.76789747    -0.94000
O551        O  0.24415718  0.15844883  0.74854497    -0.92400
O552        O  0.27073182  0.20401690  0.68183416    -0.92800
O553        O  0.31324072  0.21373935  0.70789421    -0.91600
C554        C  0.26614745  0.15430243  0.75806003     1.17500
H555        H  0.22184883  0.22331076  0.69752501     0.33400
H556        H  0.30304972  0.24458167  0.75124632     0.44300
H557        H  0.22899987  0.18868482  0.79087567     0.37800
H558        H  0.20914039  0.28275732  0.77552347     0.34300
H559        H  0.30273850  0.26384949  0.68365934     0.26100
H560        H  0.24107492  0.30266601  0.80672882     0.32000
H561        H  0.20167419  0.26150059  0.83945454     0.37900
H562        H  0.27861413  0.21117534  0.66763358     0.32400
H563        H  0.20683235  0.15988158  0.70656947     0.31300
H564        H  0.19950142  0.16135430  0.77336623     0.32900
H565        H  0.19198311  0.19388787  0.81446742     0.31900
H566        H  0.31715754  0.20702088  0.72392506     0.35900
H567        H  0.31313162  0.17790391  0.79855912     0.28600
H568        H  0.16474777  0.29140234  0.71500137     0.32900
H569        H  0.16588457  0.26712926  0.79233597     0.35700
H570        H  0.21779914  0.18060964  0.69163797     0.28300
H571        H  0.32355276  0.18595446  0.77357212     0.41200
H572        H  0.29790565  0.31425385  0.76251316     0.31300
H573        H  0.30320156  0.27407767  0.70949662     0.38900
H574        H  0.17301637  0.20242977  0.79427560     0.30700
H575        H  0.26475778  0.28859854  0.81738375     0.30800
H576        H  0.16129915  0.28625293  0.74243697     0.31100
C577        C  0.99511187  0.27961156  0.59880464     0.86500
C578        C  0.01901194  0.27332217  0.61340059    -0.53700
C579        C  0.01770616  0.25328953  0.62707030     0.09400
C580        C  0.99186350  0.24146723  0.62515400     0.20400
C581        C  0.99042757  0.25716444  0.58440835    -0.54400
C582        C  0.98862096  0.23715195  0.59826664     0.09500
C583        C  0.97376795  0.28105662  0.61718717    -0.54000
C584        C  0.97157710  0.26107978  0.63064181     0.10100
H585        H  0.03589202  0.28363321  0.61257154     0.14600
H586        H  0.99059990  0.22526911  0.63632950     0.00400
H587        H  0.98862386  0.25716620  0.56511927     0.14900
H588        H  0.96038091  0.29613501  0.61829728     0.14700
C589        C  0.99774649  0.22399865  0.08402911     0.86500
C590        C  0.97477426  0.22640504  0.10068873    -0.53700
C591        C  0.97520622  0.24552757  0.11521533     0.09400
C592        C  0.99847906  0.26065095  0.11164034     0.20400
C593        C  0.99834185  0.24739443  0.07045800    -0.54400
C594        C  0.99859696  0.26660199  0.08478887     0.09500
C595        C  0.02082398  0.22379780  0.10078596    -0.54000
C596        C  0.02135099  0.24310390  0.11525160     0.10100
H597        H  0.95983781  0.21378578  0.10146829     0.14600
H598        H  0.99880619  0.27619350  0.12349998     0.00400
H599        H  0.99825937  0.24864138  0.05110511     0.14900
H600        H  0.03543718  0.20971256  0.10088461     0.14700
Zr601      Zr  0.03002568  0.02649451  0.03962344     2.17500
O602        O  0.01760855  0.05200514  0.07272197    -0.51300
O603        O  0.07235520  0.04032686  0.03278145    -0.74500
O604        O  0.05060357  0.01284799  0.07682693    -0.81300
O605        O  0.99412269  0.06897585  0.99661432    -0.83000
O606        O  0.04398589  0.97359201  0.08111359    -0.78700
O607        O  0.01970319  0.06753898  0.02955088    -0.90300
O608        O  0.08984071  0.02047330  0.00142855    -0.76300
O609        O  0.05317710  0.99082420  0.03049319    -0.85700
O610        O  0.03620869  0.02792259  0.99750554    -0.85400
O611        O  0.00355823  0.99556176  0.05310725    -0.72200
O612        O  0.98858410  0.02950659  0.02157600    -0.84300
Zr613      Zr  0.99136986  0.96396389  0.98295474     2.26400
Zr614      Zr  0.02664857  0.95968481  0.04291528     2.06300
Zr615      Zr  0.99508176  0.02987117  0.97932873     2.10000
Zr616      Zr  0.05920823  0.99221520  0.98843802     1.78800
O617        O  0.96046830  0.05651589  0.96552538    -0.93100
O618        O  0.09624257  0.96775100  0.00071368    -0.40900
O619        O  0.01821397  0.99428307  0.96924069    -0.77600
O620        O  0.03320020  0.96039618  0.00043342    -0.96300
O621        O  0.98529171  0.96271564  0.02502793    -0.89600
O622        O  0.96818472  0.99952363  0.99230735    -0.92400
C623        C  0.09029205  0.03616459  0.01773647     1.01300
C624        C  0.00543146  0.07852949  0.01410276     1.14300
C625        C  0.05198775  0.99335759  0.08882876     1.05100
O626        O  0.06694027  0.93738399  0.04725686    -0.94600
O627        O  0.01960146  0.91941366  0.02907623    -0.90300
O628        O  0.99478594  0.92350327  0.99581201    -0.83500
C629        C  0.00645669  0.91111280  0.01191007     1.11700
O630        O  0.95231263  0.02591562  0.06640223    -0.96500
Zr631      Zr  0.96254439  0.99843383  0.03438219     1.88900
O632        O  0.94805692  0.95212521  0.98815403    -0.73200
O633        O  0.00543046  0.93808335  0.07441480    -0.52400
O634        O  0.94801802  0.97757550  0.06963741    -0.97100
O635        O  0.92575315  0.02459373  0.02537558    -0.54300
O636        O  0.93145071  0.97139873  0.02026572    -0.73700
C637        C  0.93024791  0.95658800  0.00322582     0.98600
O638        O  0.00398820  0.93739037  0.95067513    -0.62500
O639        O  0.02334132  0.04679605  0.95004441    -0.57300
O640        O  0.97247293  0.97643125  0.94488532    -0.94000
O641        O  0.97376040  0.01645078  0.94329418    -0.92400
O642        O  0.07333718  0.01312188  0.95303628    -0.92800
O643        O  0.07233511  0.96659964  0.95568557    -0.91600
C644        C  0.96784704  0.99649519  0.93455590     1.17500
H645        H  0.04536237  0.04160616  0.99273662     0.33400
H646        H  0.04153391  0.94573185  0.99553382     0.44300
H647        H  0.95197593  0.00073374  0.98419988     0.37800
H648        H  0.00122877  0.99646445  0.07015877     0.34300
H649        H  0.09810174  0.97056562  0.01801528     0.26100
H650        H  0.01764400  0.93684568  0.08786117     0.32000
H651        H  0.92924329  0.97943434  0.06898279     0.37900
H652        H  0.09213891  0.01182001  0.95375842     0.32400
H653        H  0.02519124  0.03467655  0.93750514     0.31300
H654        H  0.94496588  0.04733197  0.96707659     0.32900
H655        H  0.91553773  0.01596160  0.01377377     0.31900
H656        H  0.05622577  0.96213680  0.94817343     0.35900
H657        H  0.01090330  0.94768652  0.93811509     0.28600
H658        H  0.03372435  0.05701848  0.07980564     0.32900
H659        H  0.96126231  0.04037856  0.06214118     0.35700
H660        H  0.01302876  0.05983708  0.94246575     0.28300
H661        H  0.01910998  0.92819447  0.95673428     0.41200
H662        H  0.06445370  0.92686843  0.06118975     0.31300
H663        H  0.09073610  0.95130698  0.99973696     0.38900
H664        H  0.93270822  0.03771032  0.01598332     0.30700
H665        H  0.99169348  0.94913148  0.07999636     0.30800
H666        H  0.01032407  0.04141576  0.08482736     0.31100
Zr667      Zr  0.21624267  0.24172883  0.22920906     2.17500
O668        O  0.22094169  0.20880214  0.20161694    -0.51300
O669        O  0.17160018  0.24771121  0.21991529    -0.74500
O670        O  0.20388765  0.20410921  0.24620713    -0.81300
O671        O  0.24504367  0.28065425  0.17966184    -0.83000
O672        O  0.20865128  0.20539678  0.28651735    -0.78700
O673        O  0.22100662  0.24893522  0.18711667    -0.90300
O674        O  0.15774872  0.28374944  0.23307412    -0.76300
O675        O  0.19638251  0.25496935  0.26492053    -0.85700
O676        O  0.21051486  0.28342515  0.22402742    -0.85400
O677        O  0.24565548  0.22974188  0.26014099    -0.72200
O678        O  0.25724213  0.25694048  0.22161558    -0.84300
Zr679      Zr  0.26184103  0.30080383  0.28448964     2.26400
Zr680      Zr  0.22608458  0.24416399  0.29612571     2.06300
Zr681      Zr  0.25163406  0.29905946  0.21803706     2.10000
Zr682      Zr  0.19090666  0.29663763  0.25974503     1.78800
O683        O  0.28914649  0.30177115  0.19302690    -0.93100
O684        O  0.15565658  0.28715406  0.28579016    -0.40900
O685        O  0.23198660  0.31292609  0.25392279    -0.77600
O686        O  0.22009010  0.28627533  0.29138553    -0.96300
O687        O  0.26738573  0.25904042  0.28917511    -0.89600
O688        O  0.28116276  0.28749430  0.24860709    -0.92400
C689        C  0.15489381  0.26472212  0.22133991     1.01300
C690        C  0.23248125  0.26292428  0.17309864     1.14300
C691        C  0.20258697  0.19478813  0.26711652     1.05100
O692        O  0.18707312  0.24142926  0.31898617    -0.94600
O693        O  0.23433373  0.26319410  0.33475199    -0.90300
O694        O  0.25970738  0.29379205  0.32656441    -0.83500
C695        C  0.24761640  0.28077188  0.34095521     1.11700
O696        O  0.29236101  0.21105281  0.22798614    -0.96500
Zr697      Zr  0.28599718  0.24577099  0.25282659     1.88900
O698        O  0.30637000  0.29369738  0.29563894    -0.73200
O699        O  0.24952573  0.21508003  0.32085934    -0.52400
O700        O  0.30487535  0.21177323  0.27423066    -0.97100
O701        O  0.32020917  0.25293748  0.22479542    -0.54300
O702        O  0.31882030  0.25912390  0.27817084    -0.73700
C703        C  0.32267933  0.27674222  0.29147681     0.98600
O704        O  0.25205880  0.33666393  0.30718534    -0.62500
O705        O  0.22706789  0.32900973  0.19532757    -0.57300
O706        O  0.27961463  0.33628252  0.26786466    -0.94000
O707        O  0.27169253  0.33622811  0.22798379    -0.92400
O708        O  0.17579349  0.33106884  0.23665295    -0.92800
O709        O  0.18047814  0.32978466  0.28578697    -0.91600
C710        C  0.28027514  0.34577080  0.24700953     1.17500
H711        H  0.19992905  0.28737682  0.21035435     0.33400
H712        H  0.21303881  0.29307995  0.30576849     0.44300
H713        H  0.29731556  0.29457090  0.24607609     0.37800
H714        H  0.24836462  0.21279574  0.26076887     0.34300
H715        H  0.14236440  0.29966420  0.28253144     0.26100
H716        H  0.26506963  0.22299412  0.32578890     0.32000
H717        H  0.30046632  0.21456406  0.29115165     0.37900
H718        H  0.18927821  0.34258687  0.23834343     0.32400
H719        H  0.22713923  0.34337465  0.20521697     0.31300
H720        H  0.28689172  0.31719621  0.18467727     0.32900
H721        H  0.32989528  0.26574492  0.23184459     0.31900
H722        H  0.19639633  0.33839748  0.28686706     0.35900
H723        H  0.24446146  0.34819743  0.29554945     0.28600
H724        H  0.20401914  0.20188594  0.20064583     0.32900
H725        H  0.27811930  0.21207342  0.21640903     0.35700
H726        H  0.23794836  0.33263597  0.18150192     0.28300
H727        H  0.23757692  0.33289881  0.31758242     0.41200
H728        H  0.18085874  0.25801571  0.32102285     0.31300
H729        H  0.14867880  0.27269742  0.27905460     0.38900
H730        H  0.31161410  0.26032788  0.21070769     0.30700
H731        H  0.23937555  0.21397383  0.33564279     0.30800
H732        H  0.23201885  0.19667372  0.20978697     0.31100
C733        C  0.11019212  0.01391288  0.28920284     0.86500
C734        C  0.12201195  0.03800963  0.28863208    -0.53700
C735        C  0.13814345  0.04167060  0.27002474     0.09400
C736        C  0.14098392  0.01988215  0.25307636     0.20400
C737        C  0.09743864  0.01152212  0.26459513    -0.54400
C738        C  0.11335446  0.01463289  0.24548151     0.09500
C739        C  0.13287633  0.99620686  0.28859167    -0.54000
C740        C  0.14888629  0.99853230  0.26968267     0.10100
H741        H  0.11793367  0.05119407  0.30218380     0.14600
H742        H  0.15418473  0.02230575  0.23793815     0.00400
H743        H  0.07765416  0.00726397  0.26253262     0.14900
H744        H  0.13526076  0.98188682  0.30153092     0.14700
Zr745      Zr  0.95713132  0.02599451  0.53969527     2.17500
O746        O  0.91722795  0.04072826  0.55742947    -0.51300
O747        O  0.96586294  0.06696207  0.55014019    -0.74500
O748        O  0.95132269  0.01425217  0.58145036    -0.81300
O749        O  0.92937456  0.03576171  0.47609116    -0.83000
O750        O  0.98545514  0.99157544  0.59410276    -0.78700
O751        O  0.91971723  0.03561722  0.51561523    -0.90300
O752        O  0.00413737  0.07615927  0.53489674    -0.76300
O753        O  0.00067512  0.02594629  0.55111914    -0.85700
O754        O  0.97888964  0.04210719  0.50641135    -0.85400
O755        O  0.96845941  0.98486787  0.54732878    -0.72200
O756        O  0.94933367  0.00098884  0.50609721    -0.84300
Zr757      Zr  0.02716412  0.97530799  0.49232913     2.26400
Zr758      Zr  0.01255294  0.98521468  0.55871823     2.06300
Zr759      Zr  0.97201731  0.01710059  0.47298202     2.10000
Zr760      Zr  0.02255819  0.04089406  0.51729841     1.78800
O761        O  0.94645276  0.00053994  0.44159190    -0.93100
O762        O  0.05431418  0.05024841  0.54701878    -0.40900
O763        O  0.01586388  0.01594784  0.48408583    -0.77600
O764        O  0.03554688  0.00069086  0.52535884    -0.96300
O765        O  0.00529641  0.95951775  0.52561710    -0.89600
O766        O  0.98377641  0.97626951  0.48027693    -0.92400
C767        C  0.98351036  0.08145739  0.54596501     1.01300
C768        C  0.91401173  0.03940333  0.49360240     1.14300
C769        C  0.96374523  0.00239005  0.59763042     1.05100
O770        O  0.03736306  0.00784225  0.58635817    -0.94600
O771        O  0.05450008  0.96471002  0.55609345    -0.90300
O772        O  0.06047148  0.95656747  0.51678782    -0.83500
C773        C  0.06728305  0.95552886  0.53873038     1.11700
O774        O  0.91918376  0.95693700  0.52917984    -0.96500
Zr775      Zr  0.96199206  0.96039981  0.51352817     1.88900
O776        O  0.01914260  0.93511827  0.47999235    -0.73200
O777        O  0.01402310  0.94992232  0.58401108    -0.52400
O778        O  0.96103632  0.92911805  0.54360163    -0.97100
O779        O  0.93155753  0.94909856  0.48328179    -0.54300
O780        O  0.98086738  0.92549520  0.49483633    -0.73700
C781        C  0.00141831  0.92059286  0.48341129     0.98600
O782        O  0.06829410  0.97205600  0.47238108    -0.62500
O783        O  0.97335976  0.05562986  0.45336252    -0.57300
O784        O  0.03262178  0.98583136  0.45050468    -0.94000
O785        O  0.00028528  0.01105223  0.43834865    -0.92400
O786        O  0.02281610  0.07135398  0.48637671    -0.92800
O787        O  0.06473685  0.04551768  0.50061233    -0.91600
C788        C  0.02122394  0.99900759  0.43465893     1.17500
H789        H  0.97260452  0.05801566  0.50279761     0.33400
H790        H  0.05354195  0.00061634  0.52869920     0.44300
H791        H  0.98156936  0.96713858  0.46603709     0.37800
H792        H  0.95825814  0.97803754  0.55965744     0.34300
H793        H  0.05851161  0.06677333  0.54344496     0.26100
H794        H  0.01860196  0.93672886  0.57318299     0.32000
H795        H  0.97829738  0.92146664  0.54341443     0.37900
H796        H  0.02658353  0.06272407  0.47144760     0.32400
H797        H  0.98973933  0.05551559  0.44473963     0.31300
H798        H  0.93418134  0.99079955  0.45016023     0.32900
H799        H  0.92829178  0.93237746  0.48697800     0.31900
H800        H  0.06801916  0.03111438  0.49106158     0.35900
H801        H  0.08012411  0.98067695  0.48252741     0.28600
H802        H  0.92190514  0.04959666  0.57180544     0.32900
H803        H  0.91060643  0.97253171  0.52592852     0.35700
H804        H  0.96034656  0.05527396  0.44061442     0.28300
H805        H  0.07410036  0.95523596  0.47364723     0.41200
H806        H  0.05515608  0.00189391  0.58429350     0.31300
H807        H  0.04485727  0.05117887  0.56223764     0.38900
H808        H  0.94120294  0.94846437  0.46815764     0.30700
H809        H  0.02916419  0.95140579  0.59431425     0.30800
H810        H  0.90859582  0.02670116  0.56351558     0.31100
C811        C  0.24486420  0.17276857  0.03859405     0.86500
C812        C  0.26783903  0.15534649  0.04123085    -0.53700
C813        C  0.26933517  0.13882778  0.02356330     0.09400
C814        C  0.24756855  0.14103459  0.00526304     0.20400
C815        C  0.24686459  0.18317238  0.01354486    -0.54400
C816        C  0.24836764  0.16661175  0.99605445     0.09500
C817        C  0.22185406  0.15716329  0.03763271    -0.54000
C818        C  0.22312586  0.14042583  0.02035474     0.10100
H819        H  0.28188457  0.15642040  0.05533933     0.14600
H820        H  0.24882871  0.12764442  0.99096437     0.00400
H821        H  0.24737469  0.20203110  0.01007185     0.14900
H822        H  0.20594264  0.15895665  0.04986226     0.14700
Zr823      Zr  0.46955774  0.03415061  0.98201989     2.17500
O824        O  0.46959429  0.06053461  0.94732912    -0.51300
O825        O  0.42461948  0.04108685  0.99008658    -0.74500
O826        O  0.45396334  0.01597141  0.94582971    -0.81300
O827        O  0.49831342  0.08384864  0.01830333    -0.83000
O828        O  0.46569823  0.97688840  0.94635418    -0.78700
O829        O  0.47079224  0.07608994  0.98820966    -0.90300
O830        O  0.41697631  0.02312480  0.02561542    -0.76300
O831        O  0.45650350  0.99697739  0.99621079    -0.85700
O832        O  0.46760811  0.03791760  0.02436250    -0.85400
O833        O  0.50198287  0.00657262  0.96859555    -0.72200
O834        O  0.51104451  0.04379487  0.99561111    -0.84300
Zr835      Zr  0.52880658  0.98112151  0.03965433     2.26400
Zr836      Zr  0.48941159  0.96918002  0.98378800     2.06300
Zr837      Zr  0.50929330  0.04631530  0.03823965     2.10000
Zr838      Zr  0.45487353  0.00073900  0.03846573     1.78800
O839        O  0.54586656  0.07088039  0.04210274    -0.93100
O840        O  0.42662513  0.96827776  0.03287701    -0.40900
O841        O  0.49644515  0.00897383  0.05303160    -0.77600
O842        O  0.48673424  0.97240255  0.02644700    -0.96300
O843        O  0.53109236  0.97799643  0.99734919    -0.89600
O844        O  0.54173698  0.01845758  0.02557414    -0.92400
C845        C  0.41029882  0.03628906  0.00778409     1.01300
C846        C  0.48321048  0.09016760  0.00113098     1.14300
C847        C  0.45497537  0.99538221  0.93640219     1.05100
O848        O  0.45655840  0.94060209  0.97938139    -0.94600
O849        O  0.50177124  0.93144224  0.00311765    -0.90300
O850        O  0.52549034  0.93884730  0.03606522    -0.83500
C851        C  0.51422103  0.92490369  0.02202799     1.11700
O852        O  0.54807394  0.04207251  0.94923985    -0.96500
Zr853      Zr  0.54303459  0.01564640  0.98325265     1.88900
O854        O  0.57275930  0.97170294  0.02851982    -0.73200
O855        O  0.51683869  0.95085183  0.95365721    -0.52400
O856        O  0.55631585  0.99542994  0.94694780    -0.97100
O857        O  0.57430718  0.04548916  0.98946670    -0.54300
O858        O  0.57999610  0.99174337  0.99408828    -0.73700
C859        C  0.58673593  0.97727191  0.01077980     0.98600
O860        O  0.52958809  0.95551445  0.07493884    -0.62500
O861        O  0.48352671  0.06897089  0.06664612    -0.57300
O862        O  0.54639313  0.99969934  0.07490888    -0.94000
O863        O  0.52872518  0.03691313  0.07736038    -0.92400
O864        O  0.44050185  0.02182162  0.07394521    -0.92800
O865        O  0.44947217  0.97709260  0.07443979    -0.91600
C866        C  0.54209995  0.01920808  0.08595943     1.17500
H867        H  0.45568770  0.05046636  0.02897071     0.33400
H868        H  0.48143891  0.95786524  0.03355488     0.44300
H869        H  0.55806616  0.02207391  0.03211042     0.37800
H870        H  0.50275806  0.00649960  0.95139381     0.34300
H871        H  0.41018360  0.97395217  0.03970691     0.26100
H872        H  0.53298841  0.94663432  0.96205366     0.32000
H873        H  0.57492627  0.99716994  0.94613113     0.37900
H874        H  0.42204296  0.02509148  0.07160575     0.32400
H875        H  0.47656738  0.05694507  0.07745152     0.31300
H876        H  0.53961652  0.08455156  0.05160314     0.32900
H877        H  0.58556505  0.03914762  0.00238700     0.31900
H878        H  0.46680439  0.97073093  0.07835595     0.35900
H879        H  0.54718452  0.95537993  0.08122043     0.28600
H880        H  0.45223048  0.06054066  0.94050830     0.32900
H881        H  0.53086551  0.04930942  0.94643913     0.35700
H882        H  0.49593874  0.07714332  0.07655341     0.28300
H883        H  0.51907783  0.96404257  0.08697286     0.41200
H884        H  0.46277923  0.93005151  0.96649193     0.31300
H885        H  0.42349264  0.96779045  0.01547965     0.38900
H886        H  0.56459579  0.05888891  0.99677161     0.30700
H887        H  0.50928942  0.93549387  0.95049153     0.30800
H888        H  0.48063326  0.05240141  0.93542891     0.31100
Zr889      Zr  0.52545540  0.03418684  0.49055977     2.17500
O890        O  0.56685818  0.03681270  0.47140166    -0.51300
O891        O  0.51312759  0.07483973  0.48083689    -0.74500
O892        O  0.52437732  0.02901990  0.44747630    -0.81300
O893        O  0.55810950  0.04520843  0.55077045    -0.83000
O894        O  0.49549393  0.00195073  0.43795132    -0.78700
O895        O  0.55865494  0.05373242  0.51095123    -0.90300
O896        O  0.47521938  0.08468957  0.49800910    -0.76300
O897        O  0.48112611  0.03442816  0.48260280    -0.85700
O898        O  0.50605420  0.04945576  0.52581085    -0.85400
O899        O  0.51755840  0.99360104  0.48292350    -0.72200
O900        O  0.53984824  0.00879585  0.52290552    -0.84300
Zr901      Zr  0.46633551  0.98312364  0.54265226     2.26400
Zr902      Zr  0.47243670  0.99382638  0.47554650     2.06300
Zr903      Zr  0.51917382  0.02371191  0.55824772     2.10000
Zr904      Zr  0.46179172  0.04926347  0.51819919     1.78800
O905        O  0.55082178  0.00479405  0.58468306    -0.93100
O906        O  0.42685474  0.06121448  0.49152679    -0.40900
O907        O  0.47443375  0.02349456  0.55061065    -0.77600
O908        O  0.45177314  0.00910266  0.51084304    -0.96300
O909        O  0.48611725  0.96790913  0.50767522    -0.89600
O910        O  0.51062817  0.98312134  0.55107385    -0.92400
C911        C  0.49475412  0.08958973  0.48564623     1.01300
C912        C  0.56758630  0.05495809  0.53211568     1.14300
C913        C  0.51348505  0.01581169  0.43243978     1.05100
O914        O  0.43960502  0.01460781  0.45182252    -0.94600
O915        O  0.43417612  0.97096375  0.48237679    -0.90300
O916        O  0.43220720  0.96464663  0.52241425    -0.83500
C917        C  0.42374960  0.96240767  0.50119351     1.11700
O918        O  0.57288571  0.96582843  0.49858726    -0.96500
Zr919      Zr  0.53040936  0.96853786  0.51569867     1.88900
O920        O  0.47711292  0.94169498  0.55049942    -0.73200
O921        O  0.47207000  0.95868244  0.45092723    -0.52400
O922        O  0.53511271  0.93905131  0.48459970    -0.97100
O923        O  0.56320510  0.95547369  0.54427053    -0.54300
O924        O  0.51404760  0.93241109  0.53136653    -0.73700
C925        C  0.49470887  0.92697090  0.54370658     0.98600
O926        O  0.42802781  0.98174611  0.56697975    -0.62500
O927        O  0.51724792  0.06025131  0.58077117    -0.57300
O928        O  0.46679975  0.98844861  0.58530828    -0.94000
O929        O  0.49540349  0.01551644  0.59552998    -0.92400
O930        O  0.46262301  0.07870754  0.54953067    -0.92800
O931        O  0.42112601  0.05300682  0.53869940    -0.91600
C932        C  0.47760509  0.00130183  0.60067787     1.17500
H933        H  0.51117340  0.06531388  0.52890334     0.33400
H934        H  0.43354343  0.00873952  0.50920922     0.44300
H935        H  0.51499459  0.97325887  0.56475824     0.37800
H936        H  0.52711376  0.98800896  0.46929071     0.34300
H937        H  0.43499100  0.06389513  0.47588543     0.26100
H938        H  0.46269385  0.96383435  0.43632107     0.32000
H939        H  0.51796001  0.93838741  0.47745469     0.37900
H940        H  0.45945644  0.09411222  0.54134491     0.32400
H941        H  0.49918280  0.06257692  0.58537133     0.31300
H942        H  0.55721098  0.01781774  0.59433903     0.32900
H943        H  0.55582568  0.94251912  0.55357300     0.31900
H944        H  0.42197848  0.04031973  0.55098687     0.35900
H945        H  0.41469773  0.99086924  0.55791158     0.28600
H946        H  0.56469465  0.04914998  0.45882873     0.32900
H947        H  0.57946689  0.98181525  0.50039267     0.35700
H948        H  0.52625424  0.05627937  0.59590018     0.28300
H949        H  0.42280288  0.96517129  0.56670319     0.41200
H950        H  0.44890305  0.02522794  0.44114233     0.31300
H951        H  0.41725541  0.04675871  0.48928458     0.38900
H952        H  0.56420257  0.96859406  0.55568465     0.30700
H953        H  0.48985975  0.95594610  0.44563049     0.30800
H954        H  0.56981163  0.02180102  0.46275489     0.31100
C955        C  0.49754834  0.23332174  0.40392841     0.86500
C956        C  0.51997079  0.23162257  0.38668878    -0.53700
C957        C  0.52073728  0.24974918  0.37059872     0.09400
C958        C  0.49898095  0.26851005  0.37362241     0.20400
C959        C  0.49961318  0.25738511  0.41580526    -0.54400
C960        C  0.50028628  0.27584167  0.39989260     0.09500
C961        C  0.47409378  0.23585845  0.38772514    -0.54000
C962        C  0.47484533  0.25444150  0.37207697     0.10100
H963        H  0.53410064  0.21715151  0.38720990     0.14600
H964        H  0.49947535  0.28345910  0.36067538     0.00400
H965        H  0.50004670  0.25961664  0.43500940     0.14900
H966        H  0.45822861  0.22425527  0.38869294     0.14700
Zr967      Zr  0.95492315  0.47017557  0.02376924     2.17500
O968        O  0.94754712  0.44430405  0.05798145    -0.51300
O969        O  0.91242778  0.45801238  0.01435931    -0.74500
O970        O  0.93639334  0.49074447  0.05831656    -0.81300
O971        O  0.99195230  0.41925518  0.99179902    -0.83000
O972        O  0.94263505  0.53007840  0.05514872    -0.78700
O973        O  0.97214066  0.43011010  0.02630605    -0.90300
O974        O  0.89992248  0.47594688  0.97974246    -0.76300
O975        O  0.93604988  0.50503160  0.00631035    -0.85700
O976        O  0.95409665  0.46227436  0.98198693    -0.85400
O977        O  0.98235115  0.50100277  0.03498228    -0.72200
O978        O  0.99801617  0.46242222  0.01109533    -0.84300
Zr979      Zr  0.00579069  0.52133261  0.96227410     2.26400
Zr980      Zr  0.96382176  0.53614078  0.01637540     2.06300
Zr981      Zr  0.99739876  0.45554946  0.96881672     2.10000
Zr982      Zr  0.93547991  0.49728290  0.96466166     1.78800
O983        O  0.03764460  0.43273105  0.97006462    -0.93100
O984        O  0.90070624  0.52705935  0.96552370    -0.40900
O985        O  0.97835110  0.49062465  0.95112685    -0.77600
O986        O  0.96228173  0.52914921  0.97400824    -0.96300
O987        O  0.00700567  0.52871152  0.00395729    -0.89600
O988        O  0.02482336  0.48639796  0.97946622    -0.92400
C989        C  0.89614770  0.46250456  0.99777550     1.01300
C990        C  0.98343029  0.41491894  0.01279978     1.14300
C991        C  0.93433610  0.51192507  0.06627248     1.05100
O992        O  0.92441076  0.56021810  0.01542071    -0.94600
O993        O  0.97330924  0.57376081  0.99620600    -0.90300
O994        O  0.99789960  0.56341419  0.96443579    -0.83500
C995        C  0.98603025  0.57874967  0.97728714     1.11700
O996        O  0.03146326  0.47338820  0.05963045    -0.96500
Zr997      Zr  0.02500349  0.49345265  0.02136837     1.88900
O998        O  0.04991077  0.53078562  0.97054209    -0.73200
O999        O  0.98500866  0.56029169  0.04539083    -0.52400
O1000       O  0.03509291  0.52035625  0.05331127    -0.97100
O1001       O  0.05951976  0.46339816  0.02138444    -0.54300
O1002       O  0.06054837  0.51467940  0.00663443    -0.73700
C1003       C  0.06546379  0.52682990  0.98798725     0.98600
O1004       O  0.00743067  0.54212714  0.92394544    -0.62500
O1005       O  0.97837451  0.42855062  0.94103182    -0.57300
O1006       O  0.02069035  0.50219675  0.92616946    -0.94000
O1007       O  0.01732462  0.46244592  0.92919400    -0.92400
O1008       O  0.92647826  0.46865859  0.93401494    -0.92800
O1009       O  0.92508656  0.51493652  0.92590866    -0.91600
C1010       C  0.02349709  0.48130122  0.91775164     1.17500
H1011       H  0.94432188  0.44868195  0.97858122     0.33400
H1012       H  0.95535834  0.54300313  0.96574906     0.44300
H1013       H  0.04174844  0.48324097  0.97333839     0.37800
H1014       H  0.98303829  0.50254278  0.05210206     0.34300
H1015       H  0.89147285  0.52384519  0.98048962     0.26100
H1016       H  0.97213551  0.57278942  0.04961079     0.32000
H1017       H  0.04159915  0.53448525  0.04524336     0.37900
H1018       H  0.94337753  0.46309601  0.92813061     0.32400
H1019       H  0.99215874  0.41669880  0.93743607     0.31300
H1020       H  0.03663303  0.42152900  0.95669979     0.32900
H1021       H  0.06890487  0.46607648  0.00639032     0.31900
H1022       H  0.93323562  0.53035142  0.92592335     0.35900
H1023       H  0.99099442  0.55115086  0.92214510     0.28600
H1024       H  0.92909921  0.44594793  0.06134342     0.32900
H1025       H  0.01753912  0.46222004  0.06060365     0.35700
H1026       H  0.96605512  0.41975737  0.95058608     0.28300
H1027       H  0.02040988  0.55414100  0.92566197     0.41200
H1028       H  0.91091787  0.54899070  0.01869835     0.31300
H1029       H  0.90890752  0.54215345  0.96844416     0.38900
H1030       H  0.05104711  0.44836155  0.01884695     0.30700
H1031       H  0.98681808  0.55028648  0.05992687     0.30800
H1032       H  0.95596463  0.45140782  0.07181563     0.31100
Zr1033     Zr  0.52308045  0.47782775  0.95397299     2.17500
O1034       O  0.53571039  0.44800767  0.92463471    -0.51300
O1035       O  0.56519806  0.46457613  0.96765219    -0.74500
O1036       O  0.53763512  0.49412298  0.91641594    -0.81300
O1037       O  0.48805229  0.43000312  0.98840993    -0.83000
O1038       O  0.53249228  0.53411326  0.91658853    -0.78700
O1039       O  0.50717812  0.43873768  0.95333763    -0.90300
O1040       O  0.57738588  0.48582471  0.99943637    -0.76300
O1041       O  0.53951050  0.51397967  0.96679891    -0.85700
O1042       O  0.52486502  0.47405027  0.99637812    -0.85400
O1043       O  0.49322570  0.50779243  0.93905876    -0.72200
O1044       O  0.48055520  0.47157428  0.96671251    -0.84300
Zr1045     Zr  0.46855528  0.53404512  0.00919859     2.26400
Zr1046     Zr  0.50906652  0.54417846  0.95349064     2.06300
Zr1047     Zr  0.48223449  0.46793508  0.00928958     2.10000
Zr1048     Zr  0.54068149  0.51072891  0.00917836     1.78800
O1049       O  0.44316920  0.44710120  0.01502636    -0.93100
O1050       O  0.57243244  0.53982658  0.00100082    -0.40900
O1051       O  0.49856078  0.50418968  0.02299913    -0.77600
O1052       O  0.51109991  0.54137030  0.99639723    -0.96300
O1053       O  0.46644629  0.53835254  0.96693217    -0.89600
O1054       O  0.45215305  0.49805425  0.99582364    -0.92400
C1055       C  0.58091876  0.46941879  0.98419347     1.01300
C1056       C  0.49662173  0.42441348  0.96760513     1.14300
C1057       C  0.53986886  0.51450123  0.90676799     1.05100
O1058       O  0.54461251  0.57000055  0.94949761    -0.94600
O1059       O  0.49824144  0.58300695  0.97073217    -0.90300
O1060       O  0.47107248  0.57566709  0.00108497    -0.83500
C1061       C  0.48329913  0.58965728  0.98775492     1.11700
O1062       O  0.44351648  0.47690921  0.91938092    -0.96500
Zr1063     Zr  0.45109585  0.50200455  0.95340033     1.88900
O1064       O  0.42311121  0.53904465  0.00214558    -0.73200
O1065       O  0.48456104  0.56529327  0.92247108    -0.52400
O1066       O  0.43965905  0.52431178  0.91731385    -0.97100
O1067       O  0.41818096  0.47352016  0.95900450    -0.54300
O1068       O  0.41467769  0.52639232  0.96481067    -0.73700
C1069       C  0.40826137  0.53642935  0.98431042     0.98600
O1070       O  0.46247413  0.55868207  0.04440533    -0.62500
O1071       O  0.50537952  0.44139409  0.03692166    -0.57300
O1072       O  0.46077505  0.51941690  0.04913259    -0.94000
O1073       O  0.46532585  0.47935183  0.04887249    -0.92400
O1074       O  0.55258963  0.49098004  0.04655516    -0.92800
O1075       O  0.54820581  0.53509028  0.04382396    -0.91600
C1076       C  0.45996133  0.49914084  0.05934272     1.17500
H1077       H  0.53542653  0.46063884  0.00172929     0.33400
H1078       H  0.51676261  0.55585629  0.00308179     0.44300
H1079       H  0.43559660  0.49528766  0.00240036     0.37800
H1080       H  0.49230584  0.50785015  0.92186440     0.34300
H1081       H  0.58887862  0.53186259  0.00547850     0.26100
H1082       H  0.49378790  0.57988976  0.91950862     0.32000
H1083       H  0.43956139  0.54106540  0.92214131     0.37900
H1084       H  0.54614499  0.47491157  0.04510997     0.32400
H1085       H  0.50720198  0.45063242  0.05166489     0.31300
H1086       H  0.44876501  0.43133771  0.02132425     0.32900
H1087       H  0.40547917  0.48125554  0.96967614     0.31900
H1088       H  0.53702485  0.54942412  0.04155023     0.35900
H1089       H  0.47802994  0.56779926  0.04582579     0.28600
H1090       H  0.55361799  0.45081267  0.92054042     0.32900
H1091       H  0.45803009  0.46520826  0.91951996     0.35700
H1092       H  0.49314497  0.42926403  0.04117937     0.28300
H1093       H  0.44865863  0.57048140  0.04042646     0.41200
H1094       H  0.54000847  0.58050482  0.93579619     0.31300
H1095       H  0.57313517  0.54135031  0.98341904     0.38900
H1096       H  0.42636159  0.46077191  0.96891078     0.30700
H1097       H  0.48732510  0.55586133  0.90787381     0.30800
H1098       H  0.52585482  0.45192944  0.90994623     0.31100
Zr1099     Zr  0.97219107  0.53490686  0.47063231     2.17500
O1100       O  0.94280738  0.56904826  0.47485896    -0.51300
O1101       O  0.96270871  0.52631517  0.42908007    -0.74500
O1102       O  0.98823896  0.56924881  0.45044047    -0.81300
O1103       O  0.92294413  0.50289888  0.50665642    -0.83000
O1104       O  0.03111090  0.56861260  0.45576430    -0.78700
O1105       O  0.92748843  0.52817043  0.47528703    -0.90300
O1106       O  0.98252366  0.49120511  0.41994413    -0.76300
O1107       O  0.00988956  0.51872508  0.45284041    -0.85700
O1108       O  0.96798593  0.49330316  0.47247767    -0.85400
O1109       O  0.00598868  0.54880435  0.49508193    -0.72200
O1110       O  0.96810365  0.52532592  0.51225570    -0.84300
Zr1111     Zr  0.03660653  0.48038172  0.52102954     2.26400
Zr1112     Zr  0.04375955  0.53195066  0.47717103     2.06300
Zr1113     Zr  0.96460941  0.48339348  0.51401690     2.10000
Zr1114     Zr  0.00588742  0.47711147  0.45533180     1.78800
O1115       O  0.94431903  0.48502489  0.55298497    -0.93100
O1116       O  0.03579255  0.47440855  0.42224775    -0.40900
O1117       O  0.00272089  0.46663338  0.49674710    -0.77600
O1118       O  0.04053446  0.48977829  0.47912213    -0.96300
O1119       O  0.04069662  0.52200450  0.51883792    -0.89600
O1120       O  0.99863476  0.49620087  0.53864294    -0.92400
C1121       C  0.96846241  0.50957105  0.41453245     1.01300
C1122       C  0.91403790  0.51733210  0.49058597     1.14300
C1123       C  0.01004417  0.57824070  0.44801366     1.05100
O1124       O  0.06730161  0.53127741  0.43984068    -0.94600
O1125       O  0.08604319  0.51367455  0.48386958    -0.90300
O1126       O  0.08107075  0.48619041  0.51321436    -0.83500
C1127       C  0.09464610  0.49776643  0.49861840     1.11700
O1128       O  0.98313914  0.57753484  0.53872369    -0.96500
Zr1129     Zr  0.00272036  0.53781459  0.53641413     1.88900
O1130       O  0.04654820  0.48916450  0.56282425    -0.73200
O1131       O  0.06902088  0.56390011  0.49147107    -0.52400
O1132       O  0.03276200  0.56725697  0.54775864    -0.97100
O1133       O  0.96887388  0.53944335  0.56601480    -0.54300
O1134       O  0.02656602  0.52421911  0.57180453    -0.73700
C1135       C  0.04105693  0.50611334  0.57728703     0.98600
O1136       O  0.06793346  0.44736791  0.52201169    -0.62500
O1137       O  0.93568126  0.45387058  0.50030819    -0.57300
O1138       O  0.01982287  0.44375974  0.53617351    -0.94000
O1139       O  0.97698035  0.44452638  0.53090267    -0.92400
O1140       O  0.97755805  0.44476417  0.44950119    -0.92800
O1141       O  0.02884920  0.43913769  0.45155124    -0.91600
C1142       C  0.99817132  0.43422676  0.53738651     1.17500
H1143       H  0.95330490  0.48861718  0.46365246     0.33400
H1144       H  0.05569023  0.48193931  0.47287407     0.44300
H1145       H  0.99664613  0.49060341  0.55481905     0.37800
H1146       H  0.00601293  0.56582633  0.49447334     0.34300
H1147       H  0.03252952  0.48906607  0.41277578     0.26100
H1148       H  0.07631663  0.55802039  0.50680678     0.32000
H1149       H  0.03635322  0.57585444  0.53276641     0.37900
H1150       H  0.96494759  0.45068069  0.43751089     0.32400
H1151       H  0.92618576  0.46136091  0.48676993     0.31300
H1152       H  0.92680268  0.48000592  0.55012234     0.32900
H1153       H  0.96723716  0.52290042  0.57138851     0.31900
H1154       H  0.03616438  0.43588626  0.46759470     0.35900
H1155       H  0.06876891  0.44185585  0.53882498     0.28600
H1156       H  0.94042853  0.57581541  0.45861647     0.32900
H1157       H  0.98491808  0.58225804  0.55558151     0.35700
H1158       H  0.94679121  0.44153661  0.49280744     0.28300
H1159       H  0.06028437  0.43443124  0.51311530     0.41200
H1160       H  0.05923072  0.51922076  0.43010650     0.31300
H1161       H  0.05273987  0.47626170  0.42949083     0.38900
H1162       H  0.95312938  0.54318443  0.55678085     0.30700
H1163       H  0.08369701  0.56411852  0.48046940     0.30800
H1164       H  0.95247482  0.58079951  0.48364835     0.31100
C1165       C  0.24075349  0.35410159  0.53159460     0.86500
C1166       C  0.22171600  0.37510618  0.52967735    -0.53700
C1167       C  0.22546634  0.38953232  0.51039236     0.09400
C1168       C  0.24792262  0.38104840  0.49443700     0.20400
C1169       C  0.23856348  0.34127808  0.50804017    -0.54400
C1170       C  0.24243471  0.35504756  0.48848030     0.09500
C1171       C  0.26677992  0.36505307  0.53122312    -0.54000
C1172       C  0.27070399  0.37933537  0.51198239     0.10100
H1173       H  0.20688303  0.37854133  0.54275537     0.14600
H1174       H  0.25080793  0.39259210  0.47865782     0.00400
H1175       H  0.23478076  0.32261748  0.50698623     0.14900
H1176       H  0.28063419  0.36227437  0.54547938     0.14700
Zr1177     Zr  0.46235989  0.48407357  0.46634243     2.17500
O1178       O  0.42117594  0.47668651  0.44833650    -0.51300
O1179       O  0.47549370  0.44508874  0.45103470    -0.74500
O1180       O  0.45778006  0.49730038  0.42499908    -0.81300
O1181       O  0.43440593  0.46506251  0.52697330    -0.83000
O1182       O  0.48928176  0.52185079  0.41555602    -0.78700
O1183       O  0.42692436  0.46775353  0.48699313    -0.90300
O1184       O  0.51391390  0.43495082  0.46738419    -0.76300
O1185       O  0.50598853  0.48698033  0.45615672    -0.85700
O1186       O  0.48495332  0.46489866  0.49861705    -0.85400
O1187       O  0.46828174  0.52590659  0.46325079    -0.72200
O1188       O  0.45052097  0.50434563  0.50235454    -0.84300
Zr1189     Zr  0.52388781  0.52930275  0.52136109     2.26400
Zr1190     Zr  0.51253269  0.52871965  0.45353569     2.06300
Zr1191     Zr  0.47383815  0.48537075  0.53475325     2.10000
Zr1192     Zr  0.52849127  0.46823344  0.48872522     1.78800
O1193       O  0.44298318  0.50064378  0.56360832    -0.93100
O1194       O  0.56104732  0.46103211  0.45848580    -0.40900
O1195       O  0.51795410  0.48785495  0.52523693    -0.77600
O1196       O  0.53606345  0.50921453  0.48542554    -0.96300
O1197       O  0.50113152  0.54908361  0.48959339    -0.89600
O1198       O  0.48050041  0.52677152  0.53185960    -0.92400
C1199       C  0.49458951  0.43060829  0.45465164     1.01300
C1200       C  0.42088835  0.46167464  0.50821219     1.14300
C1201       C  0.46948723  0.51021576  0.41008832     1.05100
O1202       O  0.54498152  0.51703055  0.42464763    -0.94600
O1203       O  0.55091516  0.55099357  0.46246262    -0.90300
O1204       O  0.55544668  0.55236408  0.50285860    -0.83500
C1205       C  0.56254455  0.55709662  0.48164166     1.11700
O1206       O  0.41540402  0.55053844  0.48226314    -0.96500
Zr1207     Zr  0.45770259  0.54563654  0.49974635     1.88900
O1208       O  0.51219406  0.56728480  0.53815007    -0.73200
O1209       O  0.50595928  0.56781460  0.43535692    -0.52400
O1210       O  0.44944213  0.58103309  0.47550730    -0.97100
O1211       O  0.42489568  0.54942155  0.53025610    -0.54300
O1212       O  0.47392589  0.57836328  0.52187658    -0.73700
C1213       C  0.49354116  0.58212828  0.53468406     0.98600
O1214       O  0.56737732  0.52784228  0.53662026    -0.62500
O1215       O  0.47805990  0.44599972  0.55265218    -0.57300
O1216       O  0.52597688  0.51959468  0.56344989    -0.94000
O1217       O  0.49913511  0.49040245  0.57202961    -0.92400
O1218       O  0.53470159  0.43338673  0.51413229    -0.92800
O1219       O  0.57154166  0.46617389  0.50473147    -0.91600
C1220       C  0.51657736  0.50469202  0.57794116     1.17500
H1221       H  0.48058163  0.44857135  0.50012784     0.33400
H1222       H  0.55408246  0.51034583  0.48280243     0.44300
H1223       H  0.47696772  0.53439973  0.54688633     0.37800
H1224       H  0.45766800  0.53318443  0.45094397     0.34300
H1225       H  0.55367217  0.45011160  0.44695876     0.26100
H1226       H  0.52096867  0.56973818  0.42502170     0.32000
H1227       H  0.46379881  0.58120876  0.46415725     0.37900
H1228       H  0.52785089  0.43827461  0.52982872     0.32400
H1229       H  0.49300462  0.44628078  0.56336339     0.31300
H1230       H  0.44363698  0.48889321  0.57680100     0.32900
H1231       H  0.43410981  0.55007305  0.54561856     0.31900
H1232       H  0.56990081  0.47288646  0.52091051     0.35900
H1233       H  0.56742079  0.53920104  0.54992479     0.28600
H1234       H  0.42475251  0.46765374  0.43360594     0.32900
H1235       H  0.40915260  0.53433149  0.48156136     0.35700
H1236       H  0.46335198  0.44507763  0.56354066     0.28300
H1237       H  0.57000293  0.51209996  0.54426379     0.41200
H1238       H  0.54443124  0.52994530  0.41260713     0.31300
H1239       H  0.56181766  0.47617353  0.44962487     0.38900
H1240       H  0.41692025  0.53391368  0.53057871     0.30700
H1241       H  0.49159953  0.56650241  0.42409686     0.30800
H1242       H  0.41397019  0.49225594  0.44288464     0.31100
C1243       C  0.39163220  0.51077804  0.21376860     0.86500
C1244       C  0.37371345  0.53277456  0.21427286    -0.53700
C1245       C  0.35845330  0.53470059  0.23402413     0.09400
C1246       C  0.36254323  0.51325020  0.25169161     0.20400
C1247       C  0.40651658  0.51138885  0.23736162    -0.54400
C1248       C  0.39161877  0.51251074  0.25742577     0.09500
C1249       C  0.37402989  0.49020230  0.21658262    -0.54000
C1250       C  0.35878607  0.49100558  0.23610753     0.10100
H1251       H  0.37340322  0.54596574  0.20007682     0.14600
H1252       H  0.35015855  0.51419944  0.26766353     0.00400
H1253       H  0.42714413  0.51063100  0.23809971     0.14900
H1254       H  0.37362877  0.47578764  0.20398240     0.14700
C1255       C  0.99810291  0.77660354  0.92409719     0.86500
C1256       C  0.97453148  0.77550571  0.90795025    -0.53700
C1257       C  0.97552300  0.75735586  0.89189670     0.09400
C1258       C  0.00049610  0.74198390  0.89361255     0.20400
C1259       C  0.00089781  0.75229073  0.93573263    -0.54400
C1260       C  0.00141205  0.73391094  0.92019750     0.09500
C1261       C  0.02030953  0.77785562  0.90682086    -0.54000
C1262       C  0.02187652  0.76002450  0.89058604     0.10100
H1263       H  0.95836660  0.78782236  0.90933402     0.14600
H1264       H  0.00151087  0.72723487  0.88072543     0.00400
H1265       H  0.00117117  0.74998112  0.95497288     0.14900
H1266       H  0.03366356  0.79189865  0.90749942     0.14700
Zr1267     Zr  0.21172969  0.71422937  0.77039015     2.17500
O1268       O  0.17233265  0.69486781  0.76171171    -0.51300
O1269       O  0.21792063  0.70245147  0.81208430    -0.74500
O1270       O  0.21933498  0.67199207  0.76794629    -0.81300
O1271       O  0.17458228  0.77175633  0.78263668    -0.83000
O1272       O  0.25195024  0.66402635  0.74225417    -0.78700
O1273       O  0.17340348  0.73185340  0.78734597    -0.90300
O1274       O  0.25351746  0.71994635  0.82471727    -0.76300
O1275       O  0.25643368  0.70730485  0.77375651    -0.85700
O1276       O  0.22657161  0.74867434  0.78880259    -0.85400
O1277       O  0.22654514  0.70805241  0.73034478    -0.72200
O1278       O  0.19951962  0.74668100  0.74433353    -0.84300
Zr1279     Zr  0.27489848  0.76809895  0.72607154     2.26400
Zr1280     Zr  0.27178888  0.70168359  0.73383552     2.06300
Zr1281     Zr  0.21515012  0.78120167  0.76296898     2.10000
Zr1282     Zr  0.27119189  0.74190587  0.79189496     1.78800
O1283       O  0.18427289  0.80806774  0.74321784    -0.93100
O1284       O  0.30654791  0.71504191  0.80338943    -0.40900
O1285       O  0.26028180  0.77469139  0.76609621    -0.77600
O1286       O  0.28741808  0.73614321  0.75250268    -0.96300
O1287       O  0.26028653  0.73389616  0.70736958    -0.89600
O1288       O  0.23024211  0.77561228  0.72285908    -0.92400
C1289       C  0.23442362  0.70705425  0.82811373     1.01300
C1290       C  0.16379561  0.75287178  0.78975488     1.14300
C1291       C  0.23360997  0.65778212  0.75577851     1.05100
O1292       O  0.30334415  0.67541951  0.75336775    -0.94600
O1293       O  0.31329893  0.70941199  0.71552606    -0.90300
O1294       O  0.31317005  0.74929912  0.71058549    -0.83500
C1295       C  0.32381313  0.72860266  0.70910327     1.11700
O1296       O  0.17529851  0.72309299  0.69657669    -0.96500
Zr1297     Zr  0.21562271  0.74099017  0.70461176     1.88900
O1298       O  0.26856902  0.77994466  0.68459869    -0.73200
O1299       O  0.27288074  0.68038011  0.69632150    -0.52400
O1300       O  0.21773357  0.71114146  0.67364867    -0.97100
O1301       O  0.18358936  0.77012947  0.69033758    -0.54300
O1302       O  0.23568901  0.75948966  0.67060186    -0.73700
C1303       C  0.25372763  0.77377103  0.66783890     0.98600
O1304       O  0.31525523  0.78742058  0.72970282    -0.62500
O1305       O  0.21222736  0.80374359  0.79973577    -0.57300
O1306       O  0.26967291  0.80999436  0.73122756    -0.94000
O1307       O  0.23888343  0.81781823  0.75870123    -0.92400
O1308       O  0.26558001  0.76782062  0.82605613    -0.92800
O1309       O  0.30892934  0.76420109  0.79925960    -0.91600
C1310       C  0.25733603  0.82397777  0.74518071     1.17500
H1311       H  0.21904851  0.75097305  0.80434596     0.33400
H1312       H  0.30569989  0.73482975  0.75391396     0.44300
H1313       H  0.22634497  0.78949518  0.71316991     0.37800
H1314       H  0.21907272  0.69427343  0.72377852     0.34300
H1315       H  0.31133539  0.72000284  0.81960924     0.26100
H1316       H  0.28651593  0.66796905  0.69853553     0.32000
H1317       H  0.23612265  0.70806884  0.67083336     0.37900
H1318       H  0.26606801  0.78402860  0.81936672     0.32400
H1319       H  0.19880678  0.81615380  0.79654645     0.31300
H1320       H  0.17016342  0.81017276  0.75474440     0.32900
H1321       H  0.19311655  0.78239588  0.68195718     0.31900
H1322       H  0.30628566  0.77889569  0.78970553     0.35900
H1323       H  0.31510208  0.79979081  0.71708999     0.28600
H1324       H  0.17118547  0.68212085  0.77381856     0.32900
H1325       H  0.17709226  0.70702640  0.70364682     0.35700
H1326       H  0.20467617  0.79316007  0.81168104     0.28300
H1327       H  0.31439439  0.79609077  0.74493963     0.41200
H1328       H  0.31383011  0.68601204  0.76281388     0.31300
H1329       H  0.29881198  0.69959324  0.80586259     0.38900
H1330       H  0.17712087  0.77796196  0.70494228     0.30700
H1331       H  0.25697224  0.67168943  0.69599748     0.30800
H1332       H  0.17545578  0.68659554  0.74646090     0.31100
C1333       C  0.49252583  0.77378760  0.60413557     0.86500
C1334       C  0.51757480  0.77431728  0.61773334    -0.53700
C1335       C  0.52367522  0.75439359  0.63062694     0.09400
C1336       C  0.50351479  0.73539962  0.62904228     0.20400
C1337       C  0.49470330  0.75133829  0.58907107    -0.54400
C1338       C  0.50050322  0.73122860  0.60210498     0.09500
C1339       C  0.47275797  0.76837373  0.62317523    -0.54000
C1340       C  0.47818857  0.74823104  0.63604573     0.10100
H1341       H  0.52985994  0.78922840  0.61674743     0.14600
H1342       H  0.50801002  0.71922435  0.63982427     0.00400
H1343       H  0.49163394  0.75132744  0.56990931     0.14900
H1344       H  0.45534185  0.77887696  0.62589236     0.14700
C1345       C  0.38589918  0.71900574  0.68570496     0.29800
C1346       C  0.40636810  0.70797179  0.67314645    -0.36500
C1347       C  0.42733578  0.72210676  0.66833949     0.15800
C1348       C  0.42789210  0.74527243  0.67563117     0.21600
C1349       C  0.40787542  0.75602040  0.68824042    -0.34700
C1350       C  0.38715231  0.74217853  0.69269291     0.15700
O1351       O  0.36347555  0.71019162  0.69079046    -0.26700
C1352       C  0.35051351  0.72828512  0.70085310     0.05500
C1353       C  0.36451630  0.74841062  0.70240717    -0.31600
O1354       O  0.44717083  0.75641455  0.66692019    -0.23400
C1355       C  0.45971855  0.74040444  0.65390827    -0.03400
C1356       C  0.44843089  0.71852307  0.65420224    -0.17800
H1357       H  0.40550629  0.69012772  0.66661169     0.20200
H1358       H  0.40783573  0.77446701  0.69306361     0.18600
H1359       H  0.35860889  0.76555277  0.70928426     0.18500
H1360       H  0.45335359  0.70324829  0.64346523     0.14400
C1361       C  0.10809276  0.76828996  0.82226130     0.29800
C1362       C  0.09167693  0.78267995  0.83620425    -0.36500
C1363       C  0.07224863  0.77120471  0.84836347     0.15800
C1364       C  0.06884753  0.74727941  0.84678010     0.21600
C1365       C  0.08504794  0.73295967  0.83258769    -0.34700
C1366       C  0.10465490  0.74436307  0.82065071     0.15700
O1367       O  0.12876325  0.77489928  0.81093800    -0.26700
C1368       C  0.13877889  0.75488078  0.80198856     0.05500
C1369       C  0.12439458  0.73541953  0.80741101    -0.31600
O1370       O  0.05032839  0.74006666  0.86073363    -0.23400
C1371       C  0.04179022  0.75963304  0.87160189    -0.03400
C1372       C  0.05471915  0.77952419  0.86434580    -0.17800
H1373       H  0.09443387  0.80137257  0.83817788     0.20200
H1374       H  0.08309360  0.71406747  0.83160549     0.18600
H1375       H  0.12853059  0.71708749  0.80308537     0.18500
H1376       H  0.05204558  0.79754254  0.87033724     0.14400
C1377       C  0.49329623  0.68040499  0.56837278     0.29800
C1378       C  0.48302455  0.66703681  0.55021120    -0.36500
C1379       C  0.48952402  0.64289255  0.55084568     0.15800
C1380       C  0.50549850  0.63251110  0.56785879     0.21600
C1381       C  0.51573440  0.64591348  0.58620785    -0.34700
C1382       C  0.50880299  0.67013187  0.58582279     0.15700
O1383       O  0.48896564  0.70317715  0.57147851    -0.26700
C1384       C  0.50160625  0.70764006  0.59133004     0.05500
C1385       C  0.51433730  0.68775501  0.60109014    -0.31600
O1386       O  0.50916364  0.60957675  0.56463110    -0.23400
C1387       C  0.49496753  0.60538789  0.54556232    -0.03400
C1388       C  0.48233773  0.62542643  0.53632635    -0.17800
H1389       H  0.47051507  0.67487788  0.53669602     0.20200
H1390       H  0.52794204  0.63800777  0.59992633     0.18600
H1391       H  0.52579259  0.68642059  0.61713125     0.18500
H1392       H  0.47000534  0.62692831  0.52086363     0.14400
C1393       C  0.43158944  0.50711594  0.35789951     0.29800
C1394       C  0.40965742  0.50185643  0.34478333    -0.36500
C1395       C  0.40977072  0.50739244  0.32022230     0.15800
C1396       C  0.43031229  0.51704202  0.30920439     0.21600
C1397       C  0.45224453  0.52242842  0.32237506    -0.34700
C1398       C  0.45196807  0.51724730  0.34707986     0.15700
O1399       O  0.43528537  0.50345244  0.38102239    -0.26700
C1400       C  0.45829732  0.51151217  0.38547337     0.05500
C1401       C  0.46958286  0.52038081  0.36488344    -0.31600
O1402       O  0.42662311  0.52021483  0.28595745    -0.23400
C1403       C  0.40320759  0.51283806  0.28193148    -0.03400
C1404       C  0.39183072  0.50472283  0.30273846    -0.17800
H1405       H  0.39352689  0.49403407  0.35320792     0.20200
H1406       H  0.46840423  0.53017819  0.31393208     0.18600
H1407       H  0.48808431  0.52782635  0.36322868     0.18500
H1408       H  0.37330958  0.49736029  0.30461910     0.14400
C1409       C  0.32700664  0.40888480  0.52187939     0.29800
C1410       C  0.34777040  0.41610411  0.53534793    -0.36500
C1411       C  0.36519481  0.42986441  0.52323135     0.15800
C1412       C  0.36231991  0.43597742  0.49947065     0.21600
C1413       C  0.34139987  0.42897665  0.48607059    -0.34700
C1414       C  0.32392860  0.41527759  0.49821811     0.15700
O1415       O  0.30887066  0.39548892  0.52953284    -0.26700
C1416       C  0.29379772  0.39329345  0.51063456     0.05500
C1417       C  0.30217280  0.40535350  0.49059536    -0.31600
O1418       O  0.38129967  0.44813280  0.49143905    -0.23400
C1419       C  0.39654053  0.44999268  0.51026730    -0.03400
C1420       C  0.38743698  0.43903040  0.53064811    -0.17800
H1421       H  0.35031340  0.41107478  0.55390009     0.20200
H1422       H  0.33910321  0.43363495  0.46739961     0.18600
H1423       H  0.29377537  0.40636708  0.47296590     0.18500
H1424       H  0.39621521  0.43751683  0.54810000     0.14400
C1425       C  0.15326527  0.47175470  0.51249037     0.29800
C1426       C  0.16885239  0.45801653  0.52780900    -0.36500
C1427       C  0.18602406  0.44213095  0.51692562     0.15800
C1428       C  0.18820080  0.43989410  0.49253219     0.21600
C1429       C  0.17304207  0.45432864  0.47703477    -0.34700
C1430       C  0.15549781  0.47025234  0.48800660     0.15700
O1431       O  0.13280432  0.48396095  0.51914153    -0.26700
C1432       C  0.12174137  0.49089051  0.49883136     0.05500
C1433       C  0.13518445  0.48320908  0.47875923    -0.31600
O1434       O  0.20335658  0.42162704  0.48654979    -0.23400
C1435       C  0.21065668  0.41218326  0.50749072    -0.03400
C1436       C  0.20063478  0.42447913  0.52684853    -0.17800
H1437       H  0.16623373  0.45823923  0.54695116     0.20200
H1438       H  0.17351242  0.45205545  0.45790003     0.18600
H1439       H  0.12893837  0.48403936  0.46035229     0.18500
H1440       H  0.20266839  0.42025163  0.54564406     0.14400
C1441       C  0.42149384  0.49402807  0.15908881     0.29800
C1442       C  0.42609631  0.47915053  0.13949152    -0.36500
C1443       C  0.43767609  0.48931503  0.11956329     0.15800
C1444       C  0.44412718  0.51262832  0.11893654     0.21600
C1445       C  0.44006601  0.52739453  0.13879680    -0.34700
C1446       C  0.42859903  0.51714247  0.15883247     0.15700
O1447       O  0.40881029  0.48864112  0.17850438    -0.26700
C1448       C  0.40776668  0.50842506  0.19123835     0.05500
C1449       C  0.42022821  0.52670748  0.17993916    -0.31600
O1450       O  0.45301794  0.51892430  0.09789032    -0.23400
C1451       C  0.45259740  0.49932984  0.08488191    -0.03400
C1452       C  0.44335027  0.48028168  0.09755640    -0.17800
H1453       H  0.42019693  0.46109614  0.13947393     0.20200
H1454       H  0.44472795  0.54580462  0.13834978     0.18600
H1455       H  0.42136273  0.54480433  0.18567099     0.18500
H1456       H  0.44029032  0.46266730  0.09118992     0.14400
C1457       C  0.98536460  0.64029300  0.96614848     0.29800
C1458       C  0.98210806  0.66451061  0.97086035    -0.36500
C1459       C  0.98925616  0.67998481  0.95251469     0.15800
C1460       C  0.99871100  0.67239550  0.93085617     0.21600
C1461       C  0.00193587  0.64819470  0.92612559    -0.34700
C1462       C  0.99503538  0.63272603  0.94454801     0.15700
O1463       O  0.98043187  0.62257656  0.98085520    -0.26700
C1464       C  0.98722119  0.60340648  0.96846151     0.05500
C1465       C  0.99637717  0.60881523  0.94580814    -0.31600
O1466       O  0.00424041  0.69006963  0.91635779    -0.23400
C1467       C  0.99853150  0.70929505  0.92905568    -0.03400
C1468       C  0.98897089  0.70390966  0.95160943    -0.17800
H1469       H  0.97478211  0.67088049  0.98773436     0.20200
H1470       H  0.00953636  0.64183226  0.90935150     0.18600
H1471       H  0.00320676  0.59677366  0.93216975     0.18500
H1472       H  0.98238925  0.71584569  0.96542534     0.14400
C1473       C  0.49317016  0.33697360  0.40852676     0.29800
C1474       C  0.48302561  0.36006763  0.40462252    -0.36500
C1475       C  0.48932670  0.37681554  0.42172421     0.15800
C1476       C  0.50507783  0.37120100  0.44085296     0.21600
C1477       C  0.51509232  0.34823504  0.44477707    -0.34700
C1478       C  0.50828274  0.33147514  0.42811978     0.15700
O1479       O  0.48890244  0.31825378  0.39554820    -0.26700
C1480       C  0.50111128  0.30062629  0.40729078     0.05500
C1481       C  0.51350096  0.30783317  0.42765666    -0.31600
O1482       O  0.50871628  0.38935069  0.45458959    -0.23400
C1483       C  0.49485351  0.40688135  0.44449891    -0.03400
C1484       C  0.48219765  0.40018719  0.42397984    -0.17800
H1485       H  0.47067351  0.36452216  0.38964489     0.20200
H1486       H  0.52695572  0.34365945  0.46006822     0.18600
H1487       H  0.52447207  0.29714045  0.44041197     0.18500
H1488       H  0.46994608  0.41097566  0.41235082     0.14400
C1489       C  0.49724450  0.82525096  0.56873904     0.29800
C1490       C  0.51027848  0.84100854  0.55428288    -0.36500
C1491       C  0.50044459  0.86438098  0.55376826     0.15800
C1492       C  0.47912277  0.87172191  0.56641092     0.21600
C1493       C  0.46590401  0.85589331  0.58058256    -0.34700
C1494       C  0.47584344  0.83256053  0.58122155     0.15700
O1495       O  0.50471854  0.80331656  0.57393521    -0.26700
C1496       C  0.48792009  0.79638411  0.58999382     0.05500
C1497       C  0.46930345  0.81391018  0.59494587    -0.31600
O1498       O  0.47409944  0.89463436  0.56441886    -0.23400
C1499       C  0.49249760  0.90206480  0.55038087    -0.03400
C1500       C  0.50937715  0.88400142  0.54312312    -0.17800
H1501       H  0.52752189  0.83566609  0.54495869     0.20200
H1502       H  0.44963036  0.86157903  0.59114222     0.18600
H1503       H  0.45437589  0.81396055  0.60813024     0.18500
H1504       H  0.52609448  0.88525888  0.53205792     0.14400
C1505       C  0.48653050  0.14853767  0.46623588     0.29800
C1506       C  0.47330803  0.17017401  0.46134710    -0.36500
C1507       C  0.48567801  0.18587929  0.44616857     0.15800
C1508       C  0.50938400  0.18054494  0.43673510     0.21600
C1509       C  0.52276226  0.15933221  0.44203270    -0.34700
C1510       C  0.51040095  0.14367787  0.45692102     0.15700
O1511       O  0.47785210  0.13033745  0.47813725    -0.26700
C1512       C  0.49645558  0.11375773  0.47623913     0.05500
C1513       C  0.51721723  0.12121227  0.46342835    -0.31600
O1514       O  0.51663642  0.19653254  0.42146476    -0.23400
C1515       C  0.49751874  0.21259526  0.42094035    -0.03400
C1516       C  0.47773296  0.20707894  0.43622876    -0.17800
H1517       H  0.45433644  0.17403712  0.46802894     0.20200
H1518       H  0.54107963  0.15488616  0.43416759     0.18600
H1519       H  0.53440908  0.11117461  0.45874039     0.18500
H1520       H  0.45970263  0.21663900  0.43862795     0.14400
C1521       C  0.35589698  0.06878473  0.02441014     0.29800
C1522       C  0.34110317  0.08226232  0.04036144    -0.36500
C1523       C  0.32158437  0.09653544  0.03021149     0.15800
C1524       C  0.31651054  0.09711930  0.00605184     0.21600
C1525       C  0.33148051  0.08373165  0.98999116    -0.34700
C1526       C  0.35147121  0.06981122  0.00012937     0.15700
O1527       O  0.37621037  0.05565372  0.03005533    -0.26700
C1528       C  0.38525512  0.04836899  0.00918755     0.05500
C1529       C  0.37069903  0.05661869  0.98983559    -0.31600
O1530       O  0.29732558  0.11187971  0.00054808    -0.23400
C1531       C  0.29034559  0.12103119  0.02142200    -0.03400
C1532       C  0.30485589  0.11221646  0.04048245    -0.17800
H1533       H  0.34505714  0.08216902  0.05931347     0.20200
H1534       H  0.32821698  0.08462757  0.97093271     0.18600
H1535       H  0.37441251  0.05416518  0.97102591     0.18500
H1536       H  0.30322354  0.11660043  0.05917101     0.14400
C1537       C  0.04299762  0.01121338  0.37608543     0.29800
C1538       C  0.04373725  0.02260031  0.35356914    -0.36500
C1539       C  0.06413467  0.01574443  0.33847127     0.15800
C1540       C  0.08243207  0.99881903  0.34512161     0.21600
C1541       C  0.08179525  0.98757761  0.36755916    -0.34700
C1542       C  0.06153212  0.99443293  0.38256773     0.15700
O1543       O  0.02595958  0.01502920  0.39322217    -0.26700
C1544       C  0.03375671  0.00045033  0.41090998     0.05500
C1545       C  0.05584442  0.98731149  0.40514012    -0.31600
O1546       O  0.10011890  0.99543756  0.32870822    -0.23400
C1547       C  0.09336660  0.01039606  0.31103879    -0.03400
C1548       C  0.07102265  0.02353346  0.31622002    -0.17800
H1549       H  0.02955222  0.03602655  0.34827696     0.20200
H1550       H  0.09629649  0.97451748  0.37305346     0.18600
H1551       H  0.06639844  0.97450084  0.41615695     0.18500
H1552       H  0.06167339  0.03726802  0.30542825     0.14400
C1553       C  0.32207349  0.44088714  0.23061601     0.29800
C1554       C  0.31133447  0.42258718  0.21773286    -0.36500
C1555       C  0.30411416  0.40285988  0.23104177     0.15800
C1556       C  0.30724569  0.40121379  0.25542159     0.21600
C1557       C  0.31786769  0.41966109  0.26836635    -0.34700
C1558       C  0.32503454  0.43953380  0.25502600     0.15700
O1559       O  0.33195318  0.45988781  0.22135168    -0.26700
C1560       C  0.34122332  0.47131228  0.23994483     0.05500
C1561       C  0.33729847  0.45948363  0.26148528    -0.31600
O1562       O  0.29956819  0.38094132  0.26418665    -0.23400
C1563       C  0.29136093  0.36941779  0.24517440    -0.03400
C1564       C  0.29378307  0.38228833  0.22405833    -0.17800
H1565       H  0.30931706  0.42343870  0.19852572     0.20200
H1566       H  0.32076433  0.41841183  0.28745602     0.18600
H1567       H  0.34434655  0.46386220  0.27896071     0.18500
H1568       H  0.28864205  0.37723066  0.20618132     0.14400
C1569       C  0.25520738  0.31271340  0.39296247     0.29800
C1570       C  0.26268118  0.33249153  0.40557893    -0.36500
C1571       C  0.25261325  0.33512096  0.42847996     0.15800
C1572       C  0.23664532  0.31907868  0.43841236     0.21600
C1573       C  0.22905527  0.29925067  0.42570898    -0.34700
C1574       C  0.23888813  0.29678491  0.40256430     0.15700
O1575       O  0.26120522  0.30793578  0.37081923    -0.26700
C1576       C  0.24859451  0.28874502  0.36580627     0.05500
C1577       C  0.23436698  0.28081376  0.38497807    -0.31600
O1578       O  0.23032023  0.32453045  0.46043394    -0.23400
C1579       C  0.24210949  0.34446206  0.46454726    -0.03400
C1580       C  0.25615695  0.35199291  0.44520869    -0.17800
H1581       H  0.27519070  0.34515854  0.39787726     0.20200
H1582       H  0.21624174  0.28677747  0.43327515     0.18600
H1583       H  0.22153470  0.26640660  0.38544190     0.18500
H1584       H  0.26821025  0.36695475  0.44407660     0.14400
C1585       C  0.38374756  0.26265276  0.31189579     0.29800
C1586       C  0.40513883  0.24757936  0.31528275    -0.36500
C1587       C  0.42361887  0.25571496  0.33061129     0.15800
C1588       C  0.42147797  0.27742335  0.34157425     0.21600
C1589       C  0.40002553  0.29266512  0.33798737    -0.34700
C1590       C  0.38120835  0.28430244  0.32289791     0.15700
O1591       O  0.36365752  0.25772157  0.29945131    -0.26700
C1592       C  0.34784521  0.27631830  0.30244278     0.05500
C1593       C  0.35763476  0.29355505  0.31689168    -0.31600
O1594       O  0.44014987  0.28047620  0.35676012    -0.23400
C1595       C  0.45406876  0.26039455  0.35550446    -0.03400
C1596       C  0.44479742  0.24439411  0.33952573    -0.17800
H1597       H  0.40673913  0.23026820  0.30730835     0.20200
H1598       H  0.39769915  0.30935023  0.34710212     0.18600
H1599       H  0.34858622  0.31008372  0.32247370     0.18500
H1600       H  0.45187643  0.22654715  0.33606188     0.14400
C1601       C  0.16341731  0.09777925  0.27960102     0.29800
C1602       C  0.16884150  0.11767408  0.29329280    -0.36500
C1603       C  0.17915666  0.13678482  0.28103521     0.15800
C1604       C  0.18360008  0.13644159  0.25683370     0.21600
C1605       C  0.17838953  0.11637080  0.24312577    -0.34700
C1606       C  0.16825267  0.09707641  0.25547831     0.15700
O1607       O  0.15294487  0.07846085  0.28751187    -0.26700
C1608       C  0.15111903  0.06473369  0.26840591     0.05500
C1609       C  0.16050038  0.07544832  0.24785848    -0.31600
O1610       O  0.19244871  0.15660229  0.24889065    -0.23400
C1611       C  0.19391842  0.17006201  0.26827261    -0.03400
C1612       C  0.18598429  0.15849020  0.28882805    -0.17800
H1613       H  0.16497379  0.11830418  0.31222758     0.20200
H1614       H  0.18174528  0.11594284  0.22410053     0.18600
H1615       H  0.16067842  0.06872330  0.22986734     0.18500
H1616       H  0.18487086  0.16526886  0.30678492     0.14400
C1617       C  0.24469149  0.24495261  0.11499835     0.29800
C1618       C  0.26052447  0.23708889  0.09626299    -0.36500
C1619       C  0.25040425  0.22014312  0.08122083     0.15800
C1620       C  0.22633883  0.21189944  0.08436242     0.21600
C1621       C  0.21033625  0.22027415  0.10242050    -0.34700
C1622       C  0.22046394  0.23684775  0.11749725     0.15700
O1623       O  0.25156929  0.25738850  0.13354949    -0.26700
C1624       C  0.23141626  0.25710191  0.14783546     0.05500
C1625       C  0.21148112  0.24486608  0.13856080    -0.31600
O1626       O  0.22143821  0.19452635  0.07007852    -0.23400
C1627       C  0.24252267  0.19138463  0.05740272    -0.03400
C1628       C  0.26120231  0.20704132  0.06331436    -0.17800
H1629       H  0.27990754  0.24249132  0.09457350     0.20200
H1630       H  0.19188648  0.21311289  0.10551519     0.18600
H1631       H  0.19404475  0.24027120  0.14734124     0.18500
H1632       H  0.28016844  0.20796689  0.05607047     0.14400
C1633       C  0.01107753  0.81839553  0.96873492     0.29800
C1634       C  0.02666438  0.83161580  0.98347094    -0.36500
C1635       C  0.01471907  0.85112130  0.99478058     0.15800
C1636       C  0.98914495  0.85685107  0.99189477     0.21600
C1637       C  0.97354552  0.84336085  0.97766857    -0.34700
C1638       C  0.98556046  0.82427222  0.96606510     0.15700
O1639       O  0.01863579  0.80095509  0.95468567    -0.26700
C1640       C  0.99777389  0.79586938  0.94256020     0.05500
C1641       C  0.97654751  0.80977490  0.94916798    -0.31600
O1642       O  0.98268463  0.87774426  0.00036197    -0.23400
C1643       C  0.00416384  0.88565100  0.00910698    -0.03400
C1644       C  0.02479410  0.86970033  0.00639404    -0.17800
H1645       H  0.04695616  0.82789987  0.98474069     0.20200
H1646       H  0.95380198  0.84851449  0.97439672     0.18600
H1647       H  0.95729853  0.80967767  0.94245217     0.18500
H1648       H  0.04470409  0.87280333  0.00926575     0.14400
C1649       C  0.14592725  0.06744918  0.00948514     0.29800
C1650       C  0.16878811  0.07386131  0.99864462    -0.36500
C1651       C  0.17998217  0.09396286  0.00789655     0.15800
C1652       C  0.16920625  0.10676252  0.02635719     0.21600
C1653       C  0.14654585  0.10039840  0.03711922    -0.34700
C1654       C  0.13557382  0.08034849  0.02807957     0.15700
O1655       O  0.13179204  0.04966380  0.00357957    -0.26700
C1656       C  0.11233565  0.05125735  0.01876733     0.05500
C1657       C  0.11382960  0.06998523  0.03441438    -0.31600
O1658       O  0.18272430  0.12462273  0.03257147    -0.23400
C1659       C  0.20265192  0.12348766  0.01805772    -0.03400
C1660       C  0.20199615  0.10473142  0.00218492    -0.17800
H1661       H  0.17722721  0.06390908  0.98409483     0.20200
H1662       H  0.13809254  0.11037812  0.05165024     0.18600
H1663       H  0.10040301  0.07558399  0.04803494     0.18500
H1664       H  0.21579181  0.09952709  0.98876205     0.14400
C1665       C  0.08354485  0.99889754  0.19127795     0.29800
C1666       C  0.06568801  0.98768543  0.17693394    -0.36500
C1667       C  0.06756222  0.99122984  0.15207154     0.15800
C1668       C  0.08546893  0.00529739  0.14202575     0.21600
C1669       C  0.10362402  0.01617593  0.15635260    -0.34700
C1670       C  0.10202214  0.01229012  0.18120764     0.15700
O1671       O  0.08493238  0.99818938  0.21488288    -0.26700
C1672       C  0.10480830  0.01105142  0.22024008     0.05500
C1673       C  0.11623945  0.02017843  0.19986108    -0.31600
O1674       O  0.08275422  0.00749542  0.11856728    -0.23400
C1675       C  0.06318420  0.99421898  0.11328714    -0.03400
C1676       C  0.05309985  0.98355969  0.13351641    -0.17800
H1677       H  0.05115719  0.97707210  0.18466592     0.20200
H1678       H  0.11785382  0.02715538  0.14865635     0.18600
H1679       H  0.13240339  0.03130935  0.19891778     0.18500
H1680       H  0.03669538  0.97272626  0.13452513     0.14400
C1681       C  0.98702984  0.36462814  0.04898139     0.29800
C1682       C  0.98403072  0.35188103  0.07021587    -0.36500
C1683       C  0.99142156  0.32795210  0.06946887     0.15800
C1684       C  0.00095536  0.31730305  0.04915328     0.21600
C1685       C  0.00418808  0.33012227  0.02792240    -0.34700
C1686       C  0.99684602  0.35413973  0.02868654     0.15700
O1687       O  0.98097974  0.38710709  0.04574136    -0.26700
C1688       C  0.98704371  0.39122537  0.02313715     0.05500
C1689       C  0.99703790  0.37136731  0.01151939    -0.31600
O1690       O  0.00528837  0.29446987  0.05211714    -0.23400
C1691       C  0.99864364  0.29052892  0.07463494    -0.03400
C1692       C  0.98999158  0.31072609  0.08639133    -0.17800
H1693       H  0.97616463  0.36000949  0.08610517     0.20200
H1694       H  0.01150030  0.32186724  0.01187883     0.18600
H1695       H  0.00339354  0.36986639  0.99323333     0.18500
H1696       H  0.98258554  0.31232817  0.10431428     0.14400
C1697       C  0.06515500  0.26265530  0.15753540     0.29800
C1698       C  0.07684719  0.27869193  0.17262761    -0.36500
C1699       C  0.09782021  0.26954534  0.18589104     0.15800
C1700       C  0.10659996  0.24632222  0.18419704     0.21600
C1701       C  0.09500876  0.23043573  0.16918941    -0.34700
C1702       C  0.07418011  0.23951657  0.15606417     0.15700
O1703       O  0.04531505  0.26712790  0.14346311    -0.26700
C1704       C  0.04181696  0.24656535  0.13284014     0.05500
C1705       C  0.05928628  0.22882504  0.14008186    -0.31600
O1706       O  0.12703467  0.24161286  0.19714304    -0.23400
C1707       C  0.13152760  0.26196908  0.20752806    -0.03400
C1708       C  0.11391411  0.28006380  0.20129254    -0.17800
H1709       H  0.07021637  0.29698033  0.17379896     0.20200
H1710       H  0.10197932  0.21227534  0.16762656     0.18600
H1711       H  0.06077053  0.21057078  0.13462669     0.18500
H1712       H  0.11375479  0.29842898  0.20640990     0.14400
C1713       C  0.98491341  0.17369294  0.05008679     0.29800
C1714       C  0.97124054  0.15412584  0.04341818    -0.36500
C1715       C  0.98492241  0.13663178  0.03074250     0.15800
C1716       C  0.01030272  0.13836314  0.02505124     0.21600
C1717       C  0.02353504  0.15849913  0.03058371    -0.34700
C1718       C  0.00989730  0.17590409  0.04331791     0.15700
O1719       O  0.97712458  0.19027575  0.06496458    -0.26700
C1720       C  0.99732624  0.20332423  0.06759899     0.05500
C1721       C  0.01807017  0.19551994  0.05411245    -0.31600
O1722       O  0.02058751  0.11838195  0.01715496    -0.23400
C1723       C  0.00143633  0.10390176  0.01719583    -0.03400
C1724       C  0.97871483  0.11427824  0.02522339    -0.17800
H1725       H  0.95192635  0.15185512  0.04929812     0.20200
H1726       H  0.04361625  0.15966484  0.02692350     0.18600
H1727       H  0.03691966  0.20241158  0.05369263     0.18500
H1728       H  0.96105844  0.10583648  0.02885984     0.14400
C1729       C  0.00967841  0.33518422  0.57352959     0.29800
C1730       C  0.02389104  0.35546049  0.57095703    -0.36500
C1731       C  0.01126789  0.37522835  0.56035550     0.15800
C1732       C  0.98636572  0.37512358  0.55268334     0.21600
C1733       C  0.97229737  0.35463266  0.55481076    -0.34700
C1734       C  0.98493191  0.33481517  0.56548112     0.15700
O1735       O  0.01697709  0.31560634  0.58501798    -0.26700
C1736       C  0.99672591  0.30229788  0.58434417     0.05500
C1737       C  0.97633970  0.31327005  0.57201650    -0.31600
O1738       O  0.97812284  0.39589577  0.54401575    -0.23400
C1739       C  0.99806997  0.40946529  0.54610504    -0.03400
C1740       C  0.01920898  0.39743654  0.55609965    -0.17800
H1741       H  0.04320237  0.35603502  0.57750814     0.20200
H1742       H  0.95264780  0.35436048  0.54916811     0.18600
H1743       H  0.95736467  0.30697963  0.56985508     0.18500
H1744       H  0.03776260  0.40412875  0.55971592     0.14400
C1745       C  0.97464421  0.17803786  0.58638421     0.29800
C1746       C  0.96551917  0.15541953  0.59107141    -0.36500
C1747       C  0.97169793  0.13792035  0.57413317     0.15800
C1748       C  0.98616280  0.14244191  0.55424488     0.21600
C1749       C  0.99462555  0.16507868  0.54926075    -0.34700
C1750       C  0.98817465  0.18254555  0.56592565     0.15700
O1751       O  0.97265308  0.19665582  0.60041256    -0.26700
C1752       C  0.98463548  0.21336686  0.58848661     0.05500
C1753       C  0.99449445  0.20555869  0.56685420    -0.31600
O1754       O  0.99164886  0.12333488  0.54181579    -0.23400
C1755       C  0.98024068  0.10623339  0.55351112    -0.03400
C1756       C  0.96724686  0.11426707  0.57369628    -0.17800
H1757       H  0.95498045  0.15157993  0.60709430     0.20200
H1758       H  0.00610356  0.16866974  0.53376207     0.18600
H1759       H  0.00578407  0.21512625  0.55421832     0.18500
H1760       H  0.95720431  0.10400109  0.58672438     0.14400
C1761       C  0.06558755  0.22737994  0.66473906     0.29800
C1762       C  0.07676242  0.21676211  0.68537680    -0.36500
C1763       C  0.10362735  0.21603725  0.68637090     0.15800
C1764       C  0.11814125  0.22519792  0.66830189     0.21600
C1765       C  0.10710647  0.23550229  0.64790630    -0.34700
C1766       C  0.08064820  0.23625340  0.64698249     0.15700
O1767       O  0.04097897  0.23140180  0.66019700    -0.26700
C1768       C  0.04073243  0.24314750  0.63938352     0.05500
C1769       C  0.06492036  0.24641319  0.63049717    -0.31600
O1770       O  0.14239887  0.22535961  0.67362679    -0.23400
C1771       C  0.14398909  0.21582120  0.69528282    -0.03400
C1772       C  0.12046155  0.20955314  0.70424381    -0.17800
H1773       H  0.06539548  0.21035449  0.69993245     0.20200
H1774       H  0.11841589  0.24340104  0.63410528     0.18600
H1775       H  0.07027615  0.25544913  0.61429197     0.18500
H1776       H  0.11613709  0.20343567  0.72206481     0.14400
C1777       C  0.22440369  0.32532327  0.58515901     0.29800
C1778       C  0.21180918  0.32247220  0.60690191    -0.36500
C1779       C  0.22163639  0.30427206  0.62175935     0.15800
C1780       C  0.24236649  0.28986231  0.61562053     0.21600
C1781       C  0.25462665  0.29241625  0.59370710    -0.34700
C1782       C  0.24487069  0.31064302  0.57892055     0.15700
O1783       O  0.21970022  0.34226817  0.56932905    -0.26700
C1784       C  0.23739153  0.33831203  0.55279406     0.05500
C1785       C  0.25341625  0.31876142  0.55773638    -0.31600
O1786       O  0.24953550  0.27517559  0.63290157    -0.23400
C1787       C  0.23309184  0.28014133  0.65025644    -0.03400
C1788       C  0.21519633  0.29798921  0.64431031    -0.17800
H1789       H  0.19608010  0.33414929  0.61222739     0.20200
H1790       H  0.27118984  0.28154002  0.58890923     0.18600
H1791       H  0.26962965  0.31216905  0.54758699     0.18500
H1792       H  0.20036955  0.30586316  0.65537644     0.14400
C1793       C  0.25974445  0.17177111  0.93467425     0.29800
C1794       C  0.26804799  0.16494033  0.91183454    -0.36500
C1795       C  0.26230176  0.18119673  0.89328359     0.15800
C1796       C  0.24928408  0.20248690  0.89717994     0.21600
C1797       C  0.24160021  0.20946180  0.91987191    -0.34700
C1798       C  0.24730531  0.19337684  0.93820841     0.15700
O1799       O  0.26174103  0.15913035  0.95455244    -0.26700
C1800       C  0.25063241  0.17310624  0.97077742     0.05500
C1801       C  0.24136601  0.19457002  0.96155876    -0.31600
O1802       O  0.24404643  0.21426262  0.87746380    -0.23400
C1803       C  0.25399374  0.20064150  0.86053967    -0.03400
C1804       C  0.26589757  0.17984943  0.86919583    -0.17800
H1805       H  0.27761460  0.14798492  0.90866979     0.20200
H1806       H  0.23116432  0.22602499  0.92290586     0.18600
H1807       H  0.23111300  0.20879001  0.97061544     0.18500
H1808       H  0.27468471  0.16547885  0.85917778     0.14400
C1809       C  0.49635067  0.33129204  0.92040227     0.29800
C1810       C  0.50128997  0.35490886  0.91534517    -0.36500
C1811       C  0.49713001  0.37081999  0.93409494     0.15800
C1812       C  0.48853035  0.36420807  0.95632275     0.21600
C1813       C  0.48339530  0.34060560  0.96131914    -0.34700
C1814       C  0.48776012  0.32465771  0.94260702     0.15700
O1815       O  0.49960736  0.31325070  0.90577131    -0.26700
C1816       C  0.49318361  0.29474892  0.91888089     0.05500
C1817       C  0.48550684  0.30097334  0.94188782    -0.31600
O1818       O  0.48671089  0.38206041  0.97136201    -0.23400
C1819       C  0.49431848  0.40029785  0.95849514    -0.03400
C1820       C  0.50093310  0.39424092  0.93522831    -0.17800
H1821       H  0.50830155  0.36045246  0.89813806     0.20200
H1822       H  0.47689950  0.33497163  0.97868327     0.18600
H1823       H  0.47907677  0.28980686  0.95620976     0.18500
H1824       H  0.50793842  0.40547595  0.92119684     0.14400
C1825       C  0.47241206  0.17973633  0.94933971     0.29800
C1826       C  0.45747904  0.16108445  0.95619532    -0.36500
C1827       C  0.46812353  0.14561400  0.97339263     0.15800
C1828       C  0.49174904  0.14837126  0.98350297     0.21600
C1829       C  0.50645422  0.16749331  0.97708371    -0.34700
C1830       C  0.49591906  0.18281365  0.95953855     0.15700
O1831       O  0.46707336  0.19490049  0.93197230    -0.26700
C1832       C  0.48737720  0.20795073  0.93098107     0.05500
C1833       C  0.50591879  0.20132883  0.94779354    -0.31600
O1834       O  0.49947155  0.12986415  0.99648701    -0.23400
C1835       C  0.48054267  0.11518915  0.99452141    -0.03400
C1836       C  0.46047036  0.12422712  0.98062012    -0.17800
H1837       H  0.43950835  0.15799766  0.94761195     0.20200
H1838       H  0.52541855  0.16940666  0.98408408     0.18600
H1839       H  0.52433252  0.20870282  0.95040364     0.18500
H1840       H  0.44384962  0.11529754  0.97469859     0.14400
C1841       C  0.37617279  0.26798921  0.82290622     0.29800
C1842       C  0.39360023  0.28114065  0.83599670    -0.36500
C1843       C  0.41610187  0.26874150  0.84373507     0.15800
C1844       C  0.42082491  0.24514508  0.83883558     0.21600
C1845       C  0.40377126  0.23226719  0.82568022    -0.34700
C1846       C  0.38156813  0.24449151  0.81815386     0.15700
O1847       O  0.35318881  0.27514777  0.81509558    -0.26700
C1848       C  0.34403355  0.25576020  0.80544483     0.05500
C1849       C  0.36105495  0.23637255  0.80688456    -0.31600
O1850       O  0.44121767  0.23611716  0.84964773    -0.23400
C1851       C  0.45034367  0.25404372  0.86151935    -0.03400
C1852       C  0.43557750  0.27495457  0.85848905    -0.17800
H1853       H  0.38950118  0.29940164  0.84058999     0.20200
H1854       H  0.40707984  0.21359362  0.82244638     0.18600
H1855       H  0.35841480  0.21851162  0.80100381     0.18500
H1856       H  0.43758353  0.29155018  0.86753166     0.14400
C1857       C  0.56148503  0.00870850  0.33559805     0.29800
C1858       C  0.54309324  0.99703089  0.34927571    -0.36500
C1859       C  0.53674917  0.00695425  0.37170738     0.15800
C1860       C  0.54800612  0.02680832  0.37998664     0.21600
C1861       C  0.56616240  0.03837139  0.36641072    -0.34700
C1862       C  0.57224169  0.02864549  0.34412444     0.15700
O1863       O  0.57094190  0.00239344  0.31448668    -0.26700
C1864       C  0.58795879  0.01864002  0.30935245     0.05500
C1865       C  0.58928077  0.03537179  0.32743502    -0.31600
O1866       O  0.54052632  0.03265266  0.40165655    -0.23400
C1867       C  0.52390302  0.01657962  0.40772759    -0.03400
C1868       C  0.52071333  0.00006088  0.38967207    -0.17800
H1869       H  0.53457950  0.98118660  0.34302505     0.20200
H1870       H  0.57524865  0.05380828  0.37296645     0.18600
H1871       H  0.60144229  0.05014312  0.32890465     0.18500
H1872       H  0.50920958  0.98469611  0.39014116     0.14400
C1873       C  0.57626911  0.01336658  0.14024133     0.29800
C1874       C  0.59607650  0.00521677  0.15557718    -0.36500
C1875       C  0.59353081  0.01111588  0.17982891     0.15800
C1876       C  0.57264807  0.02370986  0.18855531     0.21600
C1877       C  0.55294939  0.03206371  0.17316474    -0.34700
C1878       C  0.55579326  0.02667074  0.14879545     0.15700
O1879       O  0.57449393  0.00940279  0.11706395    -0.26700
C1880       C  0.55284949  0.02077226  0.11043630     0.05500
C1881       C  0.54050146  0.03194434  0.12948454    -0.31600
O1882       O  0.57402716  0.02693975  0.21190687    -0.23400
C1883       C  0.59631487  0.01658166  0.21827179    -0.03400
C1884       C  0.60923457  0.00649646  0.19894307    -0.17800
H1885       H  0.61239150  0.99499561  0.14904080     0.20200
H1886       H  0.53656757  0.04216883  0.17972413     0.18600
H1887       H  0.52234120  0.04163951  0.12929645     0.18500
H1888       H  0.62747588  0.99694828  0.19897113     0.14400
C1889       C  0.69609492  0.12513710  0.25973378     0.29800
C1890       C  0.68991513  0.10730409  0.27597549    -0.36500
C1891       C  0.67811555  0.08772233  0.26655661     0.15800
C1892       C  0.67263333  0.08551655  0.24266777     0.21600
C1893       C  0.67919997  0.10340521  0.22617714    -0.34700
C1894       C  0.69112132  0.12324091  0.23569255     0.15700
O1895       O  0.70583270  0.14542651  0.26532249    -0.26700
C1896       C  0.70755274  0.15707265  0.24468262     0.05500
C1897       C  0.69874962  0.14403570  0.22546974    -0.31600
O1898       O  0.65949276  0.06640906  0.23835070    -0.23400
C1899       C  0.65661900  0.05634763  0.25985440    -0.03400
C1900       C  0.66806264  0.06895389  0.27786625    -0.17800
H1901       H  0.69331761  0.10897123  0.29491415     0.20200
H1902       H  0.67459814  0.10231505  0.20741427     0.18600
H1903       H  0.69733350  0.14941402  0.20692273     0.18500
H1904       H  0.66772588  0.06552079  0.29688730     0.14400
C1905       C  0.61076083  0.24188400  0.30843639     0.29800
C1906       C  0.59471510  0.22751470  0.32129191    -0.36500
C1907       C  0.57314608  0.23888601  0.33100911     0.15800
C1908       C  0.56746206  0.26275954  0.32833237     0.21600
C1909       C  0.58322912  0.27710430  0.31482112    -0.34700
C1910       C  0.60499399  0.26569922  0.30509526     0.15700
O1911       O  0.63309630  0.23524508  0.29978449    -0.26700
C1912       C  0.64173323  0.25497429  0.29051514     0.05500
C1913       C  0.62499851  0.27448115  0.29308279    -0.31600
O1914       O  0.54756373  0.26988098  0.34113020    -0.23400
C1915       C  0.54063612  0.25023410  0.35209973    -0.03400
C1916       C  0.55569845  0.23042865  0.34605014    -0.17800
H1917       H  0.59936499  0.20896102  0.32449332     0.20200
H1918       H  0.57945698  0.29595346  0.31296026     0.18600
H1919       H  0.62779279  0.29264926  0.28795769     0.18500
H1920       H  0.55480470  0.21244387  0.35253046     0.14400
C1921       C  0.92997958  0.24148435  0.16031744     0.29800
C1922       C  0.91415545  0.22970270  0.17597571    -0.36500
C1923       C  0.89710370  0.24399925  0.18899256     0.15800
C1924       C  0.89523823  0.26827251  0.18652234     0.21600
C1925       C  0.91170824  0.28019088  0.17130178    -0.34700
C1926       C  0.92915284  0.26582141  0.15846187     0.15700
O1927       O  0.94616458  0.23134248  0.14543429    -0.26700
C1928       C  0.95625842  0.24934780  0.13410978     0.05500
C1929       C  0.94662131  0.27128264  0.14155102    -0.31600
O1930       O  0.87565980  0.27769197  0.19830482    -0.23400
C1931       C  0.86543309  0.25914672  0.20877801    -0.03400
C1932       C  0.87818018  0.23786374  0.20378644    -0.17800
H1933       H  0.91449703  0.21062566  0.17729929     0.20200
H1934       H  0.91038487  0.29917972  0.16895449     0.18600
H1935       H  0.95109931  0.28856848  0.13480728     0.18500
H1936       H  0.87288505  0.22021950  0.20869697     0.14400
C1937       C  0.92530776  0.50692929  0.31632551     0.29800
C1938       C  0.94320002  0.49424838  0.33071976    -0.36500
C1939       C  0.94800248  0.50379190  0.35328394     0.15800
C1940       C  0.93625666  0.52454882  0.36100427     0.21600
C1941       C  0.91872031  0.53738056  0.34647913    -0.34700
C1942       C  0.91369775  0.52767875  0.32410223     0.15700
O1943       O  0.91613624  0.50012658  0.29563851    -0.26700
C1944       C  0.89823597  0.51666371  0.29003068     0.05500
C1945       C  0.89619755  0.53438141  0.30718093    -0.31600
O1946       O  0.94222321  0.52950350  0.38323755    -0.23400
C1947       C  0.95799248  0.51167193  0.39001933    -0.03400
C1948       C  0.96238208  0.49519230  0.37201725    -0.17800
H1949       H  0.95192434  0.47757813  0.32514546     0.20200
H1950       H  0.90884132  0.55331160  0.35261740     0.18600
H1951       H  0.88296319  0.54943315  0.30810251     0.18500
H1952       H  0.97382838  0.47888065  0.37288352     0.14400
C1953       C  0.88602661  0.50802115  0.16262731     0.29800
C1954       C  0.88140170  0.50102167  0.13897563    -0.36500
C1955       C  0.89860076  0.50857574  0.12146421     0.15800
C1956       C  0.91861543  0.52257827  0.12671203     0.21600
C1957       C  0.92326821  0.52946896  0.15034341    -0.34700
C1958       C  0.90648829  0.52143065  0.16789472     0.15700
O1959       O  0.87282398  0.50249410  0.18191003    -0.26700
C1960       C  0.88523673  0.51219349  0.19989980     0.05500
C1961       C  0.90637907  0.52411469  0.19207939    -0.31600
O1962       O  0.93299360  0.52676927  0.10784720    -0.23400
C1963       C  0.92231006  0.51506481  0.09017657    -0.03400
C1964       C  0.90088721  0.50336416  0.09773405    -0.17800
H1965       H  0.86586457  0.48992833  0.13461016     0.20200
H1966       H  0.93933914  0.53984344  0.15486109     0.18600
H1967       H  0.91964973  0.53367566  0.20264869     0.18500
H1968       H  0.88926422  0.49191848  0.08740126     0.14400
C1969       C  0.81088984  0.39056707  0.24434992     0.29800
C1970       C  0.81841942  0.40896480  0.22923302    -0.36500
C1971       C  0.82416034  0.43018538  0.24038032     0.15800
C1972       C  0.82284556  0.43287393  0.26476917     0.21600
C1973       C  0.81503080  0.41459165  0.27984703    -0.34700
C1974       C  0.80912813  0.39346644  0.26868848     0.15700
O1975       O  0.80511304  0.36918673  0.23773949    -0.26700
C1976       C  0.79952144  0.35817456  0.25806532     0.05500
C1977       C  0.80161101  0.37247766  0.27794983    -0.31600
O1978       O  0.83096451  0.45338467  0.27165078    -0.23400
C1979       C  0.83722779  0.46429573  0.25145442    -0.03400
C1980       C  0.83323179  0.45074176  0.23133657    -0.17800
H1981       H  0.82008944  0.40673809  0.21014861     0.20200
H1982       H  0.81416261  0.41654559  0.29901148     0.18600
H1983       H  0.79814991  0.36804952  0.29644927     0.18500
H1984       H  0.83801453  0.45474991  0.21301982     0.14400
C1985       C  0.26683639  0.80859588  0.61749812     0.29800
C1986       C  0.27549902  0.82844670  0.60516491    -0.36500
C1987       C  0.26753428  0.83113018  0.58129993     0.15800
C1988       C  0.25263684  0.81500819  0.57026512     0.21600
C1989       C  0.24401613  0.79521992  0.58253930    -0.34700
C1990       C  0.25151264  0.79282931  0.60645957     0.15700
O1991       O  0.27046877  0.80349624  0.64033033    -0.26700
C1992       C  0.25711907  0.78434000  0.64397396     0.05500
C1993       C  0.24499439  0.77689967  0.62347595    -0.31600
O1994       O  0.24698043  0.82104192  0.54809563    -0.23400
C1995       C  0.25802860  0.84149842  0.54483160    -0.03400
C1996       C  0.27106392  0.84875058  0.56490932    -0.17800
H1997       H  0.28695960  0.84127952  0.61379285     0.20200
H1998       H  0.23169562  0.78290562  0.57418997     0.18600
H1999       H  0.23245834  0.76238146  0.62161004     0.18500
H2000       H  0.28149652  0.86462942  0.56708539     0.14400
C2001       C  0.12002212  0.91678373  0.53669968     0.29800
C2002       C  0.13311709  0.89661093  0.52824844    -0.36500
C2003       C  0.15957603  0.89751974  0.52733782     0.15800
C2004       C  0.17264233  0.91688974  0.53428176     0.21600
C2005       C  0.15944612  0.93712946  0.54318270    -0.34700
C2006       C  0.13270333  0.93622748  0.54413768     0.15700
O2007       O  0.09521700  0.92059526  0.53588615    -0.26700
C2008       C  0.09154414  0.94259195  0.54343382     0.05500
C2009       C  0.11420403  0.95328327  0.54886882    -0.31600
O2010       O  0.19732842  0.91444037  0.52959299    -0.23400
C2011       C  0.19978967  0.89324570  0.51948224    -0.03400
C2012       C  0.17690473  0.88201219  0.51788298    -0.17800
H2013       H  0.12322666  0.88168683  0.52154167     0.20200
H2014       H  0.16918856  0.95285817  0.54788330     0.18600
H2015       H  0.11677360  0.97161301  0.55311753     0.18500
H2016       H  0.17334035  0.86523880  0.50972718     0.14400
C2017       C  0.36317890  0.94091556  0.48961555     0.29800
C2018       C  0.33963385  0.93917186  0.47803716    -0.36500
C2019       C  0.32119644  0.92657499  0.49037542     0.15800
C2020       C  0.32552432  0.91631397  0.51252573     0.21600
C2021       C  0.34901551  0.91802366  0.52403976    -0.34700
C2022       C  0.36739897  0.93055338  0.51172902     0.15700
O2023       O  0.38291662  0.95260959  0.48193575    -0.26700
C2024       C  0.39994503  0.94960599  0.49945502     0.05500
C2025       C  0.39126511  0.93585805  0.51824375    -0.31600
O2026       O  0.30641992  0.90372799  0.51991441    -0.23400
C2027       C  0.28951942  0.90592961  0.50227788    -0.03400
C2028       C  0.29769925  0.92014029  0.48356258    -0.17800
H2029       H  0.33597952  0.94692877  0.46058107     0.20200
H2030       H  0.35285200  0.90984966  0.54127647     0.18600
H2031       H  0.40079881  0.93136911  0.53491419     0.18500
H2032       H  0.28853905  0.92352252  0.46649006     0.14400
C2033       C  0.25776350  0.81295104  0.38551692     0.29800
C2034       C  0.27164877  0.81620482  0.40640123    -0.36500
C2035       C  0.25825402  0.82696615  0.42512243     0.15800
C2036       C  0.23289400  0.83407707  0.42352777     0.21600
C2037       C  0.21882866  0.83047006  0.40269835    -0.34700
C2038       C  0.23232057  0.81979075  0.38385424     0.15700
O2039       O  0.26690840  0.80419787  0.36552518    -0.26700
C2040       C  0.24712709  0.80548390  0.35079309     0.05500
C2041       C  0.22503474  0.81497142  0.36119960    -0.31600
O2042       O  0.22484500  0.84548690  0.44263056    -0.23400
C2043       C  0.24535451  0.84556834  0.45655261    -0.03400
C2044       C  0.26655782  0.83404900  0.44665248    -0.17800
H2045       H  0.29170630  0.81133475  0.40771030     0.20200
H2046       H  0.19905254  0.83629079  0.40102350     0.18600
H2047       H  0.20646884  0.81809252  0.35315182     0.18500
H2048       H  0.28566488  0.83237557  0.45381524     0.14400
C2049       C  0.29195979  0.62275774  0.24990452     0.29800
C2050       C  0.29863716  0.60122952  0.26209907    -0.36500
C2051       C  0.31481450  0.58471984  0.24981530     0.15800
C2052       C  0.32347434  0.58925688  0.22713291     0.21600
C2053       C  0.31677602  0.61043365  0.21504843    -0.34700
C2054       C  0.30098560  0.62677255  0.22725272     0.15700
O2055       O  0.27836592  0.64138438  0.25815008    -0.26700
C2056       C  0.27888639  0.65744813  0.24041462     0.05500
C2057       C  0.29274828  0.64904978  0.22090041    -0.31600
O2058       O  0.33904720  0.57235339  0.21904951    -0.23400
C2059       C  0.34085063  0.55624654  0.23654776    -0.03400
C2060       C  0.32600644  0.56300919  0.25628548    -0.17800
H2061       H  0.29222071  0.59783865  0.28007813     0.20200
H2062       H  0.32399912  0.61420467  0.19742201     0.18600
H2063       H  0.29695498  0.65842689  0.20455684     0.18500
H2064       H  0.32426668  0.55369810  0.27310234     0.14400
C2065       C  0.18833909  0.94700792  0.27367539     0.29800
C2066       C  0.19650154  0.92596811  0.28524222    -0.36500
C2067       C  0.20777252  0.90839151  0.27089041     0.15800
C2068       C  0.21130730  0.91124892  0.24670325     0.21600
C2069       C  0.20299997  0.93251805  0.23501005    -0.34700
C2070       C  0.19127681  0.95020707  0.24945683     0.15700
O2071       O  0.17502702  0.96440222  0.28363267    -0.26700
C2072       C  0.16890064  0.97935740  0.26583956     0.05500
C2073       C  0.17876039  0.97152152  0.24399917    -0.31600
O2074       O  0.22137015  0.89179103  0.23674665    -0.23400
C2075       C  0.22406335  0.87634779  0.25489227    -0.03400
C2076       C  0.21572186  0.88583993  0.27643769    -0.17800
H2077       H  0.19325434  0.92311170  0.30408851     0.20200
H2078       H  0.20468544  0.93476265  0.21590264     0.18600
H2079       H  0.17530878  0.97923671  0.22649663     0.18500
H2080       H  0.21494711  0.87708920  0.29366361     0.14400
C2081       C  0.11534756  0.74207576  0.31561472     0.29800
C2082       C  0.09546081  0.72874301  0.32479850    -0.36500
C2083       C  0.07308237  0.74165667  0.33142401     0.15800
C2084       C  0.07062896  0.76590037  0.32891789     0.21600
C2085       C  0.09019177  0.77905267  0.31961355    -0.34700
C2086       C  0.11241551  0.76629284  0.31341978     0.15700
O2087       O  0.13835768  0.73411754  0.30905594    -0.26700
C2088       C  0.15015902  0.75369094  0.30299220     0.05500
C2089       C  0.13478919  0.77408160  0.30544344    -0.31600
O2090       O  0.04984288  0.77490571  0.33873057    -0.23400
C2091       C  0.03834541  0.75637648  0.34762163    -0.03400
C2092       C  0.05179336  0.73506778  0.34345617    -0.17800
H2093       H  0.09762489  0.70982712  0.32744677     0.20200
H2094       H  0.08863976  0.79813490  0.31839544     0.18600
H2095       H  0.13937527  0.79216935  0.30162339     0.18500
H2096       H  0.04795777  0.71777884  0.35061583     0.14400
C2097       C  0.99542610  0.67441222  0.40594118     0.29800
C2098       C  0.98444768  0.65228036  0.40523685    -0.36500
C2099       C  0.99732185  0.63385383  0.41785714     0.15800
C2100       C  0.01971710  0.63680353  0.43008426     0.21600
C2101       C  0.03063419  0.65899732  0.43093558    -0.34700
C2102       C  0.01749541  0.67754902  0.41863797     0.15700
O2103       O  0.98615877  0.69420922  0.39595470    -0.26700
C2104       C  0.00224878  0.71036920  0.40267502     0.05500
C2105       C  0.02208683  0.70100652  0.41683250    -0.31600
O2106       O  0.02792866  0.61733858  0.44141123    -0.23400
C2107       C  0.01043894  0.60177049  0.43650927    -0.03400
C2108       C  0.99096358  0.61113551  0.42196035    -0.17800
H2109       H  0.96675926  0.64972298  0.39594312     0.20200
H2110       H  0.04780715  0.66174788  0.44098865     0.18600
H2111       H  0.03759415  0.71021497  0.42465992     0.18500
H2112       H  0.97407468  0.60265246  0.41601472     0.14400
C2113       C  0.01581655  0.83000015  0.43215685     0.29800
C2114       C  0.02825078  0.85119277  0.43519677    -0.36500
C2115       C  0.01732658  0.86700499  0.45171148     0.15800
C2116       C  0.99566719  0.86223889  0.46437182     0.21600
C2117       C  0.98350350  0.84084238  0.46163329    -0.34700
C2118       C  0.99440354  0.82504142  0.44507874     0.15700
O2119       O  0.02136718  0.81385479  0.41606105    -0.26700
C2120       C  0.00333625  0.79823892  0.41860950     0.05500
C2121       C  0.98620003  0.80415951  0.43668129    -0.31600
O2122       O  0.98760825  0.88020737  0.47750039    -0.23400
C2123       C  0.00436783  0.89669714  0.47333384    -0.03400
C2124       C  0.02340517  0.88939388  0.45751749    -0.17800
H2125       H  0.04467645  0.85546629  0.42468684     0.20200
H2126       H  0.96616735  0.83718758  0.47104618     0.18600
H2127       H  0.96923607  0.79521386  0.44169485     0.18500
H2128       H  0.03879055  0.89946747  0.45054610     0.14400
C2129       C  0.72238339  0.23262770  0.38848112     0.29800
C2130       C  0.70750494  0.21703713  0.40118677    -0.36500
C2131       C  0.72019737  0.20327430  0.41860429     0.15800
C2132       C  0.74560629  0.20524025  0.42380545     0.21600
C2133       C  0.76034948  0.22156245  0.41173497    -0.34700
C2134       C  0.74778853  0.23499571  0.39379750     0.15700
O2135       O  0.71586298  0.24243103  0.36796805    -0.26700
C2136       C  0.73712887  0.25142688  0.36003637     0.05500
C2137       C  0.75755890  0.24785739  0.37559632    -0.31600
O2138       O  0.75401287  0.18908570  0.43925371    -0.23400
C2139       C  0.73377271  0.17648193  0.44381235    -0.03400
C2140       C  0.71214428  0.18465198  0.43144614    -0.17800
H2141       H  0.68800717  0.21417735  0.39622690     0.20200
H2142       H  0.78061093  0.22230651  0.41473585     0.18600
H2143       H  0.77741911  0.25062917  0.37204591     0.18500
H2144       H  0.69325151  0.17793760  0.43143443     0.14400
C2145       C  0.80843716  0.07952395  0.48769431     0.29800
C2146       C  0.82441641  0.06644285  0.50338038    -0.36500
C2147       C  0.84842866  0.05952247  0.49452873     0.15800
C2148       C  0.85618649  0.06459020  0.47161514     0.21600
C2149       C  0.83994496  0.07726522  0.45569008    -0.34700
C2150       C  0.81602539  0.08460416  0.46473380     0.15700
O2151       O  0.78665624  0.09038104  0.49337513    -0.26700
C2152       C  0.78011115  0.10274191  0.47387635     0.05500
C2153       C  0.79757923  0.09950962  0.45534488    -0.31600
O2154       O  0.88018637  0.05780122  0.46778837    -0.23400
C2155       C  0.88781248  0.04838192  0.48861141    -0.03400
C2156       C  0.86879380  0.04900013  0.50580597    -0.17800
H2157       H  0.81907278  0.06309617  0.52169161     0.20200
H2158       H  0.84603129  0.08218588  0.43796679     0.18600
H2159       H  0.79773621  0.10810848  0.43803827     0.18500
H2160       H  0.87005487  0.04318795  0.52423949     0.14400
C2161       C  0.66678689  0.09324385  0.51283204     0.29800
C2162       C  0.65694878  0.07509401  0.52699355    -0.36500
C2163       C  0.63037050  0.07603033  0.53020943     0.15800
C2164       C  0.61481256  0.09376274  0.52030232     0.21600
C2165       C  0.62462358  0.11191014  0.50651458    -0.34700
C2166       C  0.65088666  0.11069781  0.50299434     0.15700
O2167       O  0.69081397  0.09558070  0.50660786    -0.26700
C2168       C  0.69000722  0.11454928  0.49227811     0.05500
C2169       C  0.66557291  0.12456338  0.48950339    -0.31600
O2170       O  0.59056356  0.08961971  0.52233324    -0.23400
C2171       C  0.59016938  0.06910052  0.53396363    -0.03400
C2172       C  0.61444397  0.05981554  0.53952681    -0.17800
H2173       H  0.66898468  0.06072577  0.53408708     0.20200
H2174       H  0.61240633  0.12532870  0.49795011     0.18600
H2175       H  0.65941418  0.14019304  0.47947124     0.18500
H2176       H  0.61960697  0.04236290  0.54644154     0.14400
C2177       C  0.20703214  0.60392573  0.76907433     0.29800
C2178       C  0.19093351  0.58942362  0.78189458    -0.36500
C2179       C  0.18326473  0.56921361  0.77019524     0.15800
C2180       C  0.19099746  0.56341616  0.74747664     0.21600
C2181       C  0.20753376  0.57781291  0.73469186    -0.34700
C2182       C  0.21521274  0.59820632  0.74641308     0.15700
O2183       O  0.21394024  0.62490440  0.77570903    -0.26700
C2184       C  0.22710236  0.63282199  0.75729755     0.05500
C2185       C  0.22875113  0.61686764  0.73854571    -0.31600
O2186       O  0.18012883  0.54434655  0.73959510    -0.23400
C2187       C  0.16505969  0.53792986  0.75747372    -0.03400
C2188       C  0.16655617  0.55285040  0.77702870    -0.17800
H2189       H  0.18391920  0.59415662  0.79940954     0.20200
H2190       H  0.21320923  0.57388859  0.71657598     0.18600
H2191       H  0.23665466  0.61956858  0.72097555     0.18500
H2192       H  0.15659954  0.55234088  0.79382919     0.14400
C2193       C  0.16241117  0.41298045  0.74592133     0.29800
C2194       C  0.15864171  0.38941339  0.73958614    -0.36500
C2195       C  0.17939027  0.37325304  0.74335965     0.15800
C2196       C  0.20220129  0.37968618  0.75296075     0.21600
C2197       C  0.20595466  0.40320664  0.75923678    -0.34700
C2198       C  0.18534660  0.41937408  0.75523139     0.15700
O2199       O  0.14579270  0.43114332  0.74372859    -0.26700
C2200       C  0.15836621  0.44949807  0.75155923     0.05500
C2201       C  0.18304259  0.44303283  0.75898451    -0.31600
O2202       O  0.21891574  0.36165910  0.75526802    -0.23400
C2203       C  0.20677095  0.34337802  0.74679348    -0.03400
C2204       C  0.18210672  0.34963083  0.73915349    -0.17800
H2205       H  0.14083850  0.38405501  0.73212851     0.20200
H2206       H  0.22377129  0.40857722  0.76665197     0.18600
H2207       H  0.19734050  0.45408120  0.76626174     0.18500
H2208       H  0.16804978  0.33828265  0.73190020     0.14400
C2209       C  0.08151908  0.51119217  0.67688302     0.29800
C2210       C  0.06996937  0.52580633  0.65914436    -0.36500
C2211       C  0.06377609  0.51489528  0.63761168     0.15800
C2212       C  0.06892636  0.49123227  0.63355323     0.21600
C2213       C  0.08028099  0.47650634  0.65148073    -0.34700
C2214       C  0.08610803  0.48737140  0.67328725     0.15700
O2215       O  0.09019441  0.51816927  0.69766554    -0.26700
C2216       C  0.10013898  0.49857204  0.70804306     0.05500
C2217       C  0.09797975  0.47875613  0.69369071    -0.31600
O2218       O  0.06200136  0.48490991  0.61181635    -0.23400
C2219       C  0.05196558  0.50475728  0.60189941    -0.03400
C2220       C  0.05260881  0.52392712  0.61725789    -0.17800
H2221       H  0.06636228  0.54452961  0.66184446     0.20200
H2222       H  0.08449256  0.45791119  0.64855349     0.18600
H2223       H  0.10568070  0.46102197  0.69705016     0.18500
H2224       H  0.04593147  0.54197812  0.61384430     0.14400
C2225       C  0.07588813  0.47535575  0.82248179     0.29800
C2226       C  0.06786132  0.45971515  0.84066220    -0.36500
C2227       C  0.05398335  0.46999440  0.85990891     0.15800
C2228       C  0.04857518  0.49396817  0.86094669     0.21600
C2229       C  0.05625845  0.50938703  0.84287358    -0.34700
C2230       C  0.06992829  0.49920127  0.82388471     0.15700
O2231       O  0.09075299  0.47019777  0.80382349    -0.26700
C2232       C  0.09415831  0.49112017  0.79320301     0.05500
C2233       C  0.08142786  0.50958916  0.80505886    -0.31600
O2234       O  0.03695971  0.50035682  0.88080534    -0.23400
C2235       C  0.03445116  0.48037088  0.89314225    -0.03400
C2236       C  0.04461807  0.46070680  0.88089172    -0.17800
H2237       H  0.07277008  0.44099390  0.84022600     0.20200
H2238       H  0.05251403  0.52827403  0.84394384     0.18600
H2239       H  0.08183406  0.52831143  0.80113162     0.18500
H2240       H  0.04585001  0.44249857  0.88692263     0.14400
C2241       C  0.22260284  0.66025172  0.92243319     0.29800
C2242       C  0.21354332  0.65831296  0.89894944    -0.36500
C2243       C  0.22175145  0.67528107  0.88254851     0.15800
C2244       C  0.23801128  0.69264910  0.88886287     0.21600
C2245       C  0.24672585  0.69478106  0.91230999    -0.34700
C2246       C  0.23827505  0.67810318  0.92867548     0.15700
O2247       O  0.21754309  0.64635082  0.94070231    -0.26700
C2248       C  0.22978750  0.65579280  0.95882607     0.05500
C2249       C  0.24300714  0.67552939  0.95237252    -0.31600
O2250       O  0.24423775  0.70600662  0.87066482    -0.23400
C2251       C  0.23165095  0.69736629  0.85236289    -0.03400
C2252       C  0.21712525  0.67830887  0.85868869    -0.17800
H2253       H  0.20109060  0.64452602  0.89382179     0.20200
H2254       H  0.25934393  0.70844920  0.91741403     0.18600
H2255       H  0.25460600  0.68626388  0.96351713     0.18500
H2256       H  0.20554512  0.66783370  0.84727273     0.14400
C2257       C  0.15941734  0.58069419  0.98451210     0.29800
C2258       C  0.14015845  0.57404229  0.96882079    -0.36500
C2259       C  0.12274846  0.55824008  0.97811196     0.15800
C2260       C  0.12471233  0.54917824  0.00102006     0.21600
C2261       C  0.14416182  0.55545192  0.01648456    -0.34700
C2262       C  0.16099828  0.57173470  0.00748297     0.15700
O2263       O  0.17604140  0.59707195  0.98052965    -0.26700
C2264       C  0.18797870  0.59881791  0.00135543     0.05500
C2265       C  0.17951733  0.58341372  0.01870927    -0.31600
O2266       O  0.10538294  0.53640142  0.00686743    -0.23400
C2267       C  0.09059127  0.53726901  0.98759807    -0.03400
C2268       C  0.10047933  0.55052846  0.96900652    -0.17800
H2269       H  0.13804225  0.58168697  0.95112456     0.20200
H2270       H  0.14515702  0.54916764  0.03477120     0.18600
H2271       H  0.18557800  0.58168661  0.03712820     0.18500
H2272       H  0.09191753  0.55482529  0.95185376     0.14400
C2273       C  0.30435577  0.57976435  0.98493454     0.29800
C2274       C  0.32213625  0.57074149  0.96839654    -0.36500
C2275       C  0.34443676  0.56007151  0.97815495     0.15800
C2276       C  0.34886597  0.55850328  0.00243409     0.21600
C2277       C  0.33096534  0.56697756  0.01884855    -0.34700
C2278       C  0.30884031  0.57755328  0.00913929     0.15700
O2279       O  0.28331097  0.59246735  0.98007083    -0.26700
C2280       C  0.27445857  0.59832492  0.00151291     0.05500
C2281       C  0.28944836  0.58919920  0.02014010    -0.31600
O2282       O  0.37169773  0.54976557  0.00772294    -0.23400
C2283       C  0.38203811  0.54542643  0.98660699    -0.03400
C2284       C  0.36594996  0.55123677  0.96751044    -0.17800
H2285       H  0.31929207  0.57277167  0.94935225     0.20200
H2286       H  0.33452247  0.56630653  0.03787177     0.18600
H2287       H  0.28718732  0.59180849  0.03912437     0.18500
H2288       H  0.36998944  0.55012823  0.94862678     0.14400
C2289       C  0.24605345  0.67582667  0.07929558     0.29800
C2290       C  0.26160246  0.68017945  0.09883902    -0.36500
C2291       C  0.25196430  0.69685406  0.11490983     0.15800
C2292       C  0.22864141  0.70858207  0.11191678     0.21600
C2293       C  0.21308629  0.70433584  0.09213508    -0.34700
C2294       C  0.22273362  0.68744612  0.07601928     0.15700
O2295       O  0.25122923  0.66034368  0.06268192    -0.26700
C2296       C  0.23107177  0.66178793  0.04835638     0.05500
C2297       C  0.21263780  0.67851438  0.05568689    -0.31600
O2298       O  0.22312231  0.72285586  0.12971702    -0.23400
C2299       C  0.24319781  0.72014903  0.14413605    -0.03400
C2300       C  0.26175063  0.70422106  0.13581440    -0.17800
H2301       H  0.27977416  0.67086127  0.10153358     0.20200
H2302       H  0.19464190  0.71322340  0.08973893     0.18600
H2303       H  0.19449683  0.68314380  0.04740560     0.18500
H2304       H  0.27951857  0.69849323  0.14422940     0.14400
C2305       C  0.75443471  0.31534756  0.07372390     0.29800
C2306       C  0.76006404  0.31951356  0.09755407    -0.36500
C2307       C  0.75701597  0.30056724  0.11319023     0.15800
C2308       C  0.74884970  0.27886482  0.10622527     0.21600
C2309       C  0.74338964  0.27459029  0.08214326    -0.34700
C2310       C  0.74665676  0.29363845  0.06629758     0.15700
O2311       O  0.75517528  0.33099290  0.05632268    -0.26700
C2312       C  0.74811083  0.31919660  0.03730597     0.05500
C2313       C  0.74264642  0.29581683  0.04235806    -0.31600
O2314       O  0.74709901  0.26389772  0.12440184    -0.23400
C2315       C  0.75445781  0.27639960  0.14297984    -0.03400
C2316       C  0.76074455  0.29923988  0.13689441    -0.17800
H2317       H  0.76618305  0.33645805  0.10354843     0.20200
H2318       H  0.73693223  0.25775344  0.07621054     0.18600
H2319       H  0.73579341  0.28267069  0.03035454     0.18500
H2320       H  0.76705780  0.31307544  0.14835443     0.14400
C2321       C  0.80109536  0.41168947  0.98887620     0.29800
C2322       C  0.81497332  0.42832989  0.97645792    -0.36500
C2323       C  0.83615320  0.43657151  0.98832286     0.15800
C2324       C  0.84337139  0.42892132  0.01087991     0.21600
C2325       C  0.82906531  0.41261318  0.02361024    -0.34700
C2326       C  0.80765376  0.40443153  0.01174162     0.15700
O2327       O  0.78238040  0.39991370  0.97999532    -0.26700
C2328       C  0.77640674  0.38517545  0.99746188     0.05500
C2329       C  0.79129351  0.38728332  0.01780969    -0.31600
O2330       O  0.86518492  0.43745889  0.01758567    -0.23400
C2331       C  0.87176514  0.45087194  0.99912908    -0.03400
C2332       C  0.85430524  0.45106434  0.98051654    -0.17800
H2333       H  0.81023838  0.43367641  0.95834459     0.20200
H2334       H  0.83480633  0.40604680  0.04108432     0.18600
H2335       H  0.79142876  0.37643480  0.03381601     0.18500
H2336       H  0.85549308  0.45967209  0.96325365     0.14400
C2337       C  0.66956193  0.40588367  0.00812838     0.29800
C2338       C  0.66199279  0.42985376  0.01039465    -0.36500
C2339       C  0.63786719  0.43647384  0.00113908     0.15800
C2340       C  0.62241173  0.42054947  0.99048932     0.21600
C2341       C  0.62946201  0.39659605  0.98913956    -0.34700
C2342       C  0.65340770  0.39003074  0.99834471     0.15700
O2343       O  0.69271486  0.39650391  0.01160654    -0.26700
C2344       C  0.69113493  0.37442524  0.00402177     0.05500
C2345       C  0.66689249  0.36935887  0.99624988    -0.31600
O2346       O  0.60126926  0.43048048  0.98199853    -0.23400
C2347       C  0.60287206  0.45308228  0.98745271    -0.03400
C2348       C  0.62515771  0.45793563  0.99954238    -0.17800
H2349       H  0.67452875  0.44263165  0.01763186     0.20200
H2350       H  0.61759052  0.38412044  0.98044790     0.18600
H2351       H  0.66086471  0.35356652  0.98755845     0.18500
H2352       H  0.63090114  0.47467684  0.00639946     0.14400
C2353       C  0.31572057  0.91071649  0.74282406     0.29800
C2354       C  0.31007006  0.89157621  0.72846165    -0.36500
C2355       C  0.29145742  0.87681429  0.73715108     0.15800
C2356       C  0.27914964  0.88033793  0.75859583     0.21600
C2357       C  0.28459860  0.89980711  0.77289398    -0.34700
C2358       C  0.30326738  0.91473566  0.76411527     0.15700
O2359       O  0.33314445  0.92618421  0.73837703    -0.26700
C2360       C  0.33194363  0.94055565  0.75699057     0.05500
C2361       C  0.31355278  0.93432907  0.77353484    -0.31600
O2362       O  0.26398019  0.86294856  0.76402288    -0.23400
C2363       C  0.26659941  0.84827773  0.74564037    -0.03400
C2364       C  0.28334795  0.85625392  0.72844265    -0.17800
H2365       H  0.31998675  0.88807209  0.71189966     0.20200
H2366       H  0.27547224  0.90275007  0.78993900     0.18600
H2367       H  0.30875920  0.94288196  0.79019091     0.18500
H2368       H  0.28994980  0.84731837  0.71249421     0.14400
C2369       C  0.30750244  0.05519683  0.75565483     0.29800
C2370       C  0.28449903  0.06794764  0.75087847    -0.36500
C2371       C  0.28468667  0.09244877  0.75425339     0.15800
C2372       C  0.30602028  0.10344892  0.76201369     0.21600
C2373       C  0.32897766  0.09073092  0.76667619    -0.34700
C2374       C  0.32886393  0.06631749  0.76309479     0.15700
O2375       O  0.31157657  0.03219519  0.75384532    -0.26700
C2376       C  0.33591261  0.02847263  0.76005099     0.05500
C2377       C  0.34765264  0.04914375  0.76594225    -0.31600
O2378       O  0.30205408  0.12637113  0.76427964    -0.23400
C2379       C  0.27792167  0.13030593  0.75775600    -0.03400
C2380       C  0.26606825  0.10982853  0.75125206    -0.17800
H2381       H  0.26767079  0.05936135  0.74495649     0.20200
H2382       H  0.34577298  0.09931160  0.77268186     0.18600
H2383       H  0.36700052  0.05123810  0.77181074     0.18500
H2384       H  0.24665085  0.10801865  0.74540677     0.14400
C2385       C  0.40947457  0.99820535  0.83832302     0.29800
C2386       C  0.41663002  0.01365735  0.85648076    -0.36500
C2387       C  0.42708511  0.00306154  0.87741124     0.15800
C2388       C  0.43056132  0.97893813  0.88028712     0.21600
C2389       C  0.42341242  0.96353519  0.86219428    -0.34700
C2390       C  0.41279126  0.97410477  0.84140775     0.15700
O2391       O  0.39823185  0.00408569  0.81769410    -0.26700
C2392       C  0.39418293  0.98339206  0.80745264     0.05500
C2393       C  0.40302395  0.96426662  0.82152491    -0.31600
O2394       O  0.44065996  0.97282494  0.90127586    -0.23400
C2395       C  0.44356389  0.99332843  0.91220582    -0.03400
C2396       C  0.43537857  0.01268278  0.89812183    -0.17800
H2397       H  0.41387281  0.03261533  0.85460464     0.20200
H2398       H  0.42564769  0.94455687  0.86429191     0.18600
H2399       H  0.40175957  0.94562981  0.81794555     0.18500
H2400       H  0.43571701  0.03122752  0.90247229     0.14400
C2401       C  0.42238123  0.98008464  0.69004336     0.29800
C2402       C  0.43172356  0.96930084  0.66931541    -0.36500
C2403       C  0.44669442  0.98299111  0.65450344     0.15800
C2404       C  0.45230754  0.00596394  0.65940026     0.21600
C2405       C  0.44289611  0.01687984  0.68050084    -0.34700
C2406       C  0.42772687  0.00297673  0.69560215     0.15700
O2407       O  0.40708017  0.97041264  0.70547386    -0.26700
C2408       C  0.40217854  0.98699672  0.72166072     0.05500
C2409       C  0.41464871  0.00780832  0.71648989    -0.31600
O2410       O  0.46540485  0.01572630  0.64176508    -0.23400
C2411       C  0.46808708  0.99855172  0.62557988    -0.03400
C2412       C  0.45679199  0.97794276  0.63284491    -0.17800
H2413       H  0.42704494  0.95150093  0.66470700     0.20200
H2414       H  0.44657365  0.03504206  0.68454743     0.18600
H2415       H  0.41347539  0.02427168  0.72609736     0.18500
H2416       H  0.45509529  0.96180358  0.62290590     0.14400
C2417       C  0.42101696  0.77383868  0.14355882     0.29800
C2418       C  0.40496821  0.79147396  0.15419719    -0.36500
C2419       C  0.38248239  0.78364932  0.16497847     0.15800
C2420       C  0.37673794  0.76014393  0.16516029     0.21600
C2421       C  0.39267579  0.74275322  0.15496514    -0.34700
C2422       C  0.41471584  0.75049588  0.14429379     0.15700
O2423       O  0.44195794  0.77690130  0.13089497    -0.26700
C2424       C  0.44876442  0.75516555  0.12351169     0.05500
C2425       C  0.43255598  0.73817326  0.13168510    -0.31600
O2426       O  0.35509266  0.75623965  0.17556603    -0.23400
C2427       C  0.34621913  0.77734669  0.18252382    -0.03400
C2428       C  0.36248263  0.79535212  0.17641863    -0.17800
H2429       H  0.40937116  0.80993987  0.15361001     0.20200
H2430       H  0.38787316  0.72437188  0.15490666     0.18600
H2431       H  0.43312685  0.71944995  0.12800274     0.18500
H2432       H  0.36007109  0.81403661  0.17997993     0.14400
C2433       C  0.47339257  0.67856468  0.03968627     0.29800
C2434       C  0.45906663  0.65914824  0.03419525    -0.36500
C2435       C  0.46892894  0.64432662  0.01639105     0.15800
C2436       C  0.49141784  0.64814279  0.00464670     0.21600
C2437       C  0.50558237  0.66795434  0.00986467    -0.34700
C2438       C  0.49573393  0.68280979  0.02788505     0.15700
O2439       O  0.46834459  0.69375004  0.05679378    -0.26700
C2440       C  0.48765905  0.70808248  0.05611834     0.05500
C2441       C  0.50532316  0.70212615  0.03843792    -0.31600
O2442       O  0.49870756  0.63012349  0.99106100    -0.23400
C2443       C  0.48052504  0.61474781  0.99418525    -0.03400
C2444       C  0.46143546  0.62291438  0.00951337    -0.17800
H2445       H  0.44200725  0.65523563  0.04394438     0.20200
H2446       H  0.52363652  0.67089434  0.00139999     0.18600
H2447       H  0.52286420  0.71056435  0.03435249     0.18500
H2448       H  0.44565490  0.61337690  0.01652301     0.14400
C2449       C  0.50761778  0.82995165  0.06586233     0.29800
C2450       C  0.51872207  0.85154498  0.07024537    -0.36500
C2451       C  0.51559816  0.86882402  0.05225742     0.15800
C2452       C  0.50212037  0.86530298  0.03154598     0.21600
C2453       C  0.49100624  0.84372580  0.02716472    -0.34700
C2454       C  0.49449420  0.82631793  0.04497440     0.15700
O2455       O  0.50869544  0.81113353  0.07996429    -0.26700
C2456       C  0.49635145  0.79514662  0.06781818     0.05500
C2457       C  0.48705283  0.80367346  0.04594411    -0.31600
O2458       O  0.50075501  0.88420191  0.01758829    -0.23400
C2459       C  0.51376876  0.89996884  0.02939624    -0.03400
C2460       C  0.52348410  0.89132477  0.05106149    -0.17800
H2461       H  0.52918117  0.85461656  0.08647755     0.20200
H2462       H  0.48044989  0.84069631  0.01097742     0.18600
H2463       H  0.47649326  0.79448433  0.03259993     0.18500
H2464       H  0.53383757  0.90063257  0.06447386     0.14400
C2465       C  0.64432080  0.94425591  0.01488638     0.29800
C2466       C  0.66252999  0.92821552  0.02476176    -0.36500
C2467       C  0.68262136  0.92121780  0.00967626     0.15800
C2468       C  0.68441330  0.92911720  0.98636881     0.21600
C2469       C  0.66662929  0.94559016  0.97672975    -0.34700
C2470       C  0.64679368  0.95278558  0.99188332     0.15700
O2471       O  0.62301921  0.95197952  0.02508364    -0.26700
C2472       C  0.61204278  0.96584998  0.00842118     0.05500
C2473       C  0.62605981  0.96707239  0.98750547    -0.31600
O2474       O  0.70306623  0.91830548  0.97465041    -0.23400
C2475       C  0.71371102  0.90373613  0.99083560    -0.03400
C2476       C  0.70198023  0.90488426  0.01297726    -0.17800
H2477       H  0.66070821  0.92107393  0.04262111     0.20200
H2478       H  0.66764010  0.95168703  0.95841143     0.18600
H2479       H  0.62107315  0.97630401  0.97103539     0.18500
H2480       H  0.70596149  0.89398162  0.02860817     0.14400
C2481       C  0.84043734  0.90002160  0.98587719     0.29800
C2482       C  0.86550810  0.90168066  0.97804372    -0.36500
C2483       C  0.87961543  0.91880884  0.98912027     0.15800
C2484       C  0.86983554  0.93322363  0.00685899     0.21600
C2485       C  0.84473395  0.93138575  0.01489265    -0.34700
C2486       C  0.83050927  0.91428665  0.00365766     0.15700
O2487       O  0.82380116  0.88567700  0.97738480    -0.26700
C2488       C  0.80285299  0.89061497  0.98987173     0.05500
C2489       C  0.80586425  0.90830822  0.00656711    -0.31600
O2490       O  0.88633487  0.94841125  0.01426844    -0.23400
C2491       C  0.90681965  0.94367613  0.00098800    -0.03400
C2492       C  0.90374339  0.92536363  0.98509625    -0.17800
H2493       H  0.87332903  0.89063466  0.96399741     0.20200
H2494       H  0.83676730  0.94270466  0.02864852     0.18600
H2495       H  0.79197215  0.91592302  0.01875944     0.18500
H2496       H  0.91726143  0.91807297  0.97234269     0.14400
C2497       C  0.73130719  0.82946381  0.10988053     0.29800
C2498       C  0.73546037  0.84926362  0.09539960    -0.36500
C2499       C  0.73914319  0.84481365  0.07104214     0.15800
C2500       C  0.73844224  0.82252101  0.06149723     0.21600
C2501       C  0.73419744  0.80275644  0.07591916    -0.34700
C2502       C  0.73085272  0.80714054  0.10028934     0.15700
O2503       O  0.72974764  0.82918173  0.13339327    -0.26700
C2504       C  0.72826819  0.80638688  0.13882985     0.05500
C2505       C  0.72895300  0.79190285  0.11897460    -0.31600
O2506       O  0.74283047  0.82236955  0.03835867    -0.23400
C2507       C  0.74656555  0.84486415  0.03294986    -0.03400
C2508       C  0.74451657  0.85960841  0.05267334    -0.17800
H2509       H  0.73659584  0.86678275  0.10271579     0.20200
H2510       H  0.73426934  0.78509792  0.06875191     0.18600
H2511       H  0.72965080  0.77279339  0.11855396     0.18500
H2512       H  0.74649123  0.87848047  0.05359259     0.14400
C2513       C  0.69945329  0.90175509  0.26302652     0.29800
C2514       C  0.69405552  0.92049496  0.27891391    -0.36500
C2515       C  0.67846842  0.93956998  0.27005537     0.15800
C2516       C  0.66902959  0.94032023  0.24708001     0.21600
C2517       C  0.67408889  0.92147447  0.23139202    -0.34700
C2518       C  0.68945714  0.90238628  0.24027188     0.15700
O2519       O  0.71299067  0.88184485  0.26761535    -0.26700
C2520       C  0.71153755  0.86948121  0.24749907     0.05500
C2521       C  0.69697267  0.88148636  0.23004325    -0.31600
O2522       O  0.65454662  0.95959946  0.24257103    -0.23400
C2523       C  0.65441774  0.97143977  0.26299941    -0.03400
C2524       C  0.66888732  0.95966770  0.28074575    -0.17800
H2525       H  0.70119551  0.92009586  0.29703419     0.20200
H2526       H  0.66626930  0.92152793  0.21352707     0.18600
H2527       H  0.69210915  0.87539269  0.21245023     0.18500
H2528       H  0.67149074  0.96496166  0.29904919     0.14400
C2529       C  0.87893299  0.75750448  0.31112617     0.29800
C2530       C  0.90020383  0.74320657  0.31813190    -0.36500
C2531       C  0.91867796  0.75412449  0.33176111     0.15800
C2532       C  0.91629380  0.77754776  0.33808541     0.21600
C2533       C  0.89525547  0.79203337  0.33062155    -0.34700
C2534       C  0.87674661  0.78107860  0.31696219     0.15700
O2535       O  0.85888528  0.75043732  0.29950087    -0.26700
C2536       C  0.84353918  0.76968772  0.29760928     0.05500
C2537       C  0.85376030  0.78941951  0.30803166    -0.31600
O2538       O  0.93487230  0.78368395  0.35227985    -0.23400
C2539       C  0.94956003  0.76402196  0.35499975    -0.03400
C2540       C  0.94046922  0.74508276  0.34242266    -0.17800
H2541       H  0.90186706  0.72464264  0.31381569     0.20200
H2542       H  0.89311503  0.81037714  0.33571023     0.18600
H2543       H  0.84520290  0.80705395  0.30944165     0.18500
H2544       H  0.94812609  0.72707025  0.34203762     0.14400
C2545       C  0.78171589  0.61786269  0.22924967     0.29800
C2546       C  0.79466118  0.59991804  0.21611928    -0.36500
C2547       C  0.80239881  0.57923476  0.22891775     0.15800
C2548       C  0.79770547  0.57659021  0.25296364     0.21600
C2549       C  0.78484509  0.59439751  0.26599776    -0.34700
C2550       C  0.77726590  0.61496492  0.25330546     0.15700
O2551       O  0.77429984  0.63925683  0.22142550    -0.26700
C2552       C  0.76508505  0.65013600  0.24080192     0.05500
C2553       C  0.76666570  0.63585311  0.26110520    -0.31600
O2554       O  0.80911489  0.55744411  0.26215579    -0.23400
C2555       C  0.82120765  0.54723884  0.24388157    -0.03400
C2556       C  0.81757314  0.55996153  0.22261115    -0.17800
H2557       H  0.79931463  0.60231274  0.19748763     0.20200
H2558       H  0.78205787  0.59278482  0.28505362     0.18600
H2559       H  0.76165592  0.64055307  0.27920717     0.18500
H2560       H  0.82705566  0.55691703  0.20574667     0.14400
C2561       C  0.60812331  0.73682766  0.16686050     0.29800
C2562       C  0.59260115  0.72228565  0.15354310    -0.36500
C2563       C  0.57070331  0.73328706  0.14331088     0.15800
C2564       C  0.56422054  0.75692723  0.14609602     0.21600
C2565       C  0.57963118  0.77145003  0.15963033    -0.34700
C2566       C  0.60173254  0.76050200  0.16965270     0.15700
O2567       O  0.63013820  0.73047548  0.17697582    -0.26700
C2568       C  0.63809755  0.75037991  0.18633286     0.05500
C2569       C  0.62110991  0.76959388  0.18232037    -0.31600
O2570       O  0.54361817  0.76371921  0.13379389    -0.23400
C2571       C  0.53691054  0.74417315  0.12281277    -0.03400
C2572       C  0.55304282  0.72469355  0.12835655    -0.17800
H2573       H  0.59763762  0.70381059  0.15074232     0.20200
H2574       H  0.57512972  0.79013510  0.16160519     0.18600
H2575       H  0.62303992  0.78775388  0.18757262     0.18500
H2576       H  0.55238880  0.70682861  0.12185864     0.14400
C2577       C  0.66332567  0.59892842  0.47063238     0.29800
C2578       C  0.64256165  0.59324050  0.45628900    -0.36500
C2579       C  0.62166905  0.58424800  0.46828198     0.15800
C2580       C  0.62128917  0.58138862  0.49273225     0.21600
C2581       C  0.64209639  0.58692613  0.50705437    -0.34700
C2582       C  0.66311501  0.59557404  0.49502827     0.15700
O2583       O  0.68460683  0.60779113  0.46314364    -0.26700
C2584       C  0.69841827  0.60986760  0.48290292     0.05500
C2585       C  0.68607708  0.60240026  0.50333649    -0.31600
O2586       O  0.60016123  0.57232875  0.50025302    -0.23400
C2587       C  0.58673046  0.56916499  0.48044944    -0.03400
C2588       C  0.59918007  0.57625414  0.45990181    -0.17800
H2589       H  0.64277413  0.59553115  0.43710736     0.20200
H2590       H  0.64198297  0.58441237  0.52621419     0.18600
H2591       H  0.69269583  0.60268535  0.52161376     0.18500
H2592       H  0.59293341  0.57507657  0.44156994     0.14400
C2593       C  0.81223386  0.56015629  0.47541872     0.29800
C2594       C  0.83169104  0.54891380  0.46232096    -0.36500
C2595       C  0.85086150  0.53714191  0.47559956     0.15800
C2596       C  0.85075788  0.53594837  0.50020275     0.21600
C2597       C  0.83079265  0.54677162  0.51338058    -0.34700
C2598       C  0.81170308  0.55906170  0.50002142     0.15700
O2599       O  0.79539568  0.57557485  0.46655968    -0.26700
C2600       C  0.78362181  0.58461199  0.48551926     0.05500
C2601       C  0.79267624  0.57477683  0.50693939    -0.31600
O2602       O  0.87249677  0.52699383  0.50891767    -0.23400
C2603       C  0.88654177  0.52262075  0.48959657    -0.03400
C2604       C  0.87396730  0.52849268  0.46844556    -0.17800
H2605       H  0.83297203  0.55102203  0.44315543     0.20200
H2606       H  0.83122770  0.54725767  0.53266490     0.18600
H2607       H  0.78812843  0.58044431  0.52485869     0.18500
H2608       H  0.88160492  0.52838938  0.45052989     0.14400
C2609       C  0.77248642  0.67308127  0.41130626     0.29800
C2610       C  0.78260247  0.67399476  0.38823419    -0.36500
C2611       C  0.77248704  0.69205479  0.37335354     0.15800
C2612       C  0.75379762  0.70817765  0.38072250     0.21600
C2613       C  0.74421412  0.70767862  0.40400103    -0.34700
C2614       C  0.75419928  0.68952182  0.41882164     0.15700
O2615       O  0.77668155  0.65590075  0.42698012    -0.26700
C2616       C  0.76089809  0.66139402  0.44476579     0.05500
C2617       C  0.74673094  0.68233958  0.44080914    -0.31600
O2618       O  0.74510743  0.72189532  0.36318390    -0.23400
C2619       C  0.75848968  0.71455680  0.34438820    -0.03400
C2620       C  0.77602292  0.69620381  0.34968625    -0.17800
H2621       H  0.79625663  0.66070586  0.38188139     0.20200
H2622       H  0.72896307  0.71971785  0.40970192     0.18600
H2623       H  0.73159923  0.68996130  0.45168401     0.18500
H2624       H  0.78843360  0.68645881  0.33758044     0.14400
C2625       C  0.56624580  0.50131800  0.85041616     0.29800
C2626       C  0.57472110  0.48654715  0.83166385    -0.36500
C2627       C  0.58644945  0.49770730  0.81228027     0.15800
C2628       C  0.58976140  0.52169990  0.81172426     0.21600
C2629       C  0.58101815  0.53645042  0.83026750    -0.34700
C2630       C  0.56911959  0.52536625  0.84946977     0.15700
O2631       O  0.55556384  0.49456284  0.87051657    -0.26700
C2632       C  0.55133068  0.51453006  0.88260751     0.05500
C2633       C  0.55928544  0.53432205  0.87025670    -0.31600
O2634       O  0.60246536  0.52840173  0.79280169    -0.23400
C2635       C  0.60722246  0.50861677  0.78063850    -0.03400
C2636       C  0.59756006  0.48884615  0.79187715    -0.17800
H2637       H  0.57266913  0.46763622  0.83233616     0.20200
H2638       H  0.58373896  0.55526705  0.82992066     0.18600
H2639       H  0.55846918  0.55251749  0.87597236     0.18500
H2640       H  0.59953913  0.47058960  0.78646030     0.14400
C2641       C  0.57767892  0.51618824  0.66624686     0.29800
C2642       C  0.56726826  0.52917811  0.64690860    -0.36500
C2643       C  0.55104024  0.51727999  0.63176129     0.15800
C2644       C  0.54531742  0.49397878  0.63502043     0.21600
C2645       C  0.55575811  0.48086220  0.65471936    -0.34700
C2646       C  0.57206197  0.49294780  0.67019882     0.15700
O2647       O  0.59415981  0.52395113  0.68171497    -0.26700
C2648       C  0.59942980  0.50570674  0.69632527     0.05500
C2649       C  0.58608520  0.48580553  0.69007564    -0.31600
O2650       O  0.53099849  0.48617745  0.61728539    -0.23400
C2651       C  0.52756376  0.50491764  0.60264512    -0.03400
C2652       C  0.53961756  0.52460974  0.61108198    -0.17800
H2653       H  0.57203111  0.54729932  0.64354486     0.20200
H2654       H  0.55194693  0.46242924  0.65747030     0.18600
H2655       H  0.58735111  0.46843491  0.69828808     0.18500
H2656       H  0.54096452  0.54167820  0.60242949     0.14400
C2657       C  0.68069238  0.37880638  0.73955733     0.29800
C2658       C  0.65924001  0.39401116  0.74334702    -0.36500
C2659       C  0.66244238  0.41818193  0.73896692     0.15800
C2660       C  0.68526583  0.42674155  0.73156414     0.21600
C2661       C  0.70658570  0.41151152  0.72744562    -0.34700
C2662       C  0.70333183  0.38734242  0.73160859     0.15700
O2663       O  0.68208312  0.35570023  0.74300336    -0.26700
C2664       C  0.70583071  0.34920938  0.73689318     0.05500
C2665       C  0.71991326  0.36820056  0.72955744    -0.31600
O2666       O  0.68437222  0.44996736  0.72937467    -0.23400
C2667       C  0.66059703  0.45655437  0.73526863    -0.03400
C2668       C  0.64602089  0.43742333  0.74128863    -0.17800
H2669       H  0.64136369  0.38746604  0.74949057     0.20200
H2670       H  0.72455008  0.41809224  0.72158997     0.18600
H2671       H  0.73956436  0.36796765  0.72392725     0.18500
H2672       H  0.62642805  0.43763267  0.74706866     0.14400
C2673       C  0.72686194  0.31364739  0.91380570     0.29800
C2674       C  0.71220366  0.31132512  0.89319020    -0.36500
C2675       C  0.72510902  0.30213535  0.87339685     0.15800
C2676       C  0.75064349  0.29552780  0.87395150     0.21600
C2677       C  0.76530944  0.29776489  0.89465220    -0.34700
C2678       C  0.75238038  0.30702881  0.91447097     0.15700
O2679       O  0.71892538  0.32319892  0.93377306    -0.26700
C2680       C  0.73953366  0.32276919  0.94752740     0.05500
C2681       C  0.76093056  0.31257974  0.93657350    -0.31600
O2682       O  0.75870046  0.28698688  0.85349115    -0.23400
C2683       C  0.73810880  0.28827057  0.83966506    -0.03400
C2684       C  0.71662362  0.29761609  0.85105917    -0.17800
H2685       H  0.69222841  0.31666140  0.89254605     0.20200
H2686       H  0.78538793  0.29282878  0.89518548     0.18600
H2687       H  0.78016931  0.31088499  0.94340736     0.18500
H2688       H  0.69747398  0.30003099  0.84412945     0.14400
C2689       C  0.57111510  0.22716785  0.84906954     0.29800
C2690       C  0.59177712  0.21209680  0.84243810    -0.36500
C2691       C  0.61001776  0.22208540  0.82770647     0.15800
C2692       C  0.60792562  0.24534041  0.82021375     0.21600
C2693       C  0.58713612  0.26031240  0.82661999    -0.34700
C2694       C  0.56885492  0.25030936  0.84127896     0.15700
O2695       O  0.55269492  0.22178034  0.86365685    -0.26700
C2696       C  0.53825633  0.24162155  0.86532449     0.05500
C2697       C  0.54728995  0.26000712  0.85154756    -0.31600
O2698       O  0.62727994  0.25128834  0.80705413    -0.23400
C2699       C  0.64199255  0.23163308  0.80582436    -0.03400
C2700       C  0.63222074  0.21274264  0.81833592    -0.17800
H2701       H  0.59367576  0.19396852  0.84866756     0.20200
H2702       H  0.58555544  0.27859484  0.82084424     0.18600
H2703       H  0.53977521  0.27803383  0.85010510     0.18500
H2704       H  0.64032305  0.19496000  0.82037231     0.14400
C2705       C  0.91280494  0.26717872  0.65879727     0.29800
C2706       C  0.89061816  0.27981133  0.66561952    -0.36500
C2707       C  0.86956900  0.26631929  0.67036354     0.15800
C2708       C  0.87031410  0.24202685  0.66869416     0.21600
C2709       C  0.89261665  0.22933943  0.66200743    -0.34700
C2710       C  0.91373940  0.24287465  0.65722271     0.15700
O2711       O  0.93381171  0.27649959  0.65136228    -0.26700
C2712       C  0.94859690  0.25800919  0.64506574     0.05500
C2713       C  0.93722142  0.23653828  0.64858265    -0.31600
O2714       O  0.84849029  0.23300471  0.67446642    -0.23400
C2715       C  0.83361679  0.25179028  0.67980771    -0.03400
C2716       C  0.84569902  0.27300311  0.67744917    -0.17800
H2717       H  0.88968262  0.29888826  0.66662339     0.20200
H2718       H  0.89334212  0.21031614  0.66034902     0.18600
H2719       H  0.94420831  0.21910872  0.64339348     0.18500
H2720       H  0.83829347  0.29065021  0.68135619     0.14400
C2721       C  0.74427084  0.17059810  0.60711874     0.29800
C2722       C  0.75258943  0.15228567  0.59182342    -0.36500
C2723       C  0.74618467  0.15537249  0.56756576     0.15800
C2724       C  0.73287761  0.17525596  0.55910500     0.21600
C2725       C  0.72418319  0.19318834  0.57432617    -0.34700
C2726       C  0.73026728  0.18996870  0.59841828     0.15700
O2727       O  0.74836411  0.17188132  0.63037156    -0.26700
C2728       C  0.73636320  0.19213852  0.63643846     0.05500
C2729       C  0.72481391  0.20401158  0.61726871    -0.31600
O2730       O  0.72998824  0.17528673  0.53585951    -0.23400
C2731       C  0.74131654  0.15506375  0.52912458    -0.03400
C2732       C  0.75152024  0.14170285  0.54808130    -0.17800
H2733       H  0.76345118  0.13688433  0.59830591     0.20200
H2734       H  0.71360805  0.20873635  0.56777618     0.18600
H2735       H  0.71427007  0.22083621  0.61721758     0.18500
H2736       H  0.76192359  0.12483682  0.54748136     0.14400
C2737       C  0.92114441  0.99110848  0.69560252     0.29800
C2738       C  0.94452926  0.98829363  0.68360379    -0.36500
C2739       C  0.94430712  0.99387525  0.65909102     0.15800
C2740       C  0.92259676  0.00198593  0.64728843     0.21600
C2741       C  0.89917192  0.00466470  0.65926383    -0.34700
C2742       C  0.89933347  0.99876606  0.68370060     0.15700
O2743       O  0.91717794  0.98732132  0.71856202    -0.26700
C2744       C  0.89240653  0.99236564  0.72149973     0.05500
C2745       C  0.88031982  0.99949364  0.70031341    -0.31600
O2746       O  0.92669370  0.00626897  0.62442535    -0.23400
C2747       C  0.95133767  0.00063223  0.62134230    -0.03400
C2748       C  0.96324392  0.99275904  0.64237344    -0.17800
H2749       H  0.96172013  0.98216526  0.69276333     0.20200
H2750       H  0.88199031  0.01087966  0.65013824     0.18600
H2751       H  0.86061808  0.00512616  0.69763736     0.18500
H2752       H  0.98294362  0.98705625  0.64495308     0.14400
C2753       C  0.93945390  0.98431262  0.87919340     0.29800
C2754       C  0.93247902  0.97034130  0.85982984    -0.36500
C2755       C  0.91783759  0.98184139  0.84181610     0.15800
C2756       C  0.91019034  0.00537056  0.84297965     0.21600
C2757       C  0.91750874  0.01943727  0.86213491    -0.34700
C2758       C  0.93246385  0.00802589  0.87997054     0.15700
O2759       O  0.95274433  0.97710321  0.89815539    -0.26700
C2760       C  0.95463313  0.99651910  0.91116733     0.05500
C2761       C  0.94241552  0.01630963  0.90063399    -0.31600
O2762       O  0.89553581  0.01223128  0.82481242    -0.23400
C2763       C  0.89388350  0.99291769  0.81158444    -0.03400
C2764       C  0.90774857  0.97355421  0.82120845    -0.17800
H2765       H  0.93792635  0.95174325  0.85895794     0.20200
H2766       H  0.91174318  0.03795570  0.86316957     0.18600
H2767       H  0.94072445  0.03410371  0.90744857     0.18500
H2768       H  0.90945270  0.95578113  0.81435357     0.14400
C2769       C  0.77563885  0.09873130  0.75740251     0.29800
C2770       C  0.78153503  0.08001325  0.77341327    -0.36500
C2771       C  0.79859467  0.06215081  0.76513755     0.15800
C2772       C  0.80885753  0.06237064  0.74251150     0.21600
C2773       C  0.80290600  0.08104067  0.72649786    -0.34700
C2774       C  0.78617729  0.09907747  0.73489832     0.15700
O2775       O  0.76192241  0.11827416  0.76208899    -0.26700
C2776       C  0.76380844  0.13138259  0.74233819     0.05500
C2777       C  0.77865979  0.12023619  0.72488177    -0.31600
O2778       O  0.82564454  0.04467568  0.73905158    -0.23400
C2779       C  0.82630432  0.03303970  0.75981173    -0.03400
C2780       C  0.80988051  0.04316773  0.77666497    -0.17800
H2781       H  0.77420908  0.07988935  0.79142952     0.20200
H2782       H  0.81156421  0.08195606  0.70904596     0.18600
H2783       H  0.78417746  0.12725447  0.70772088     0.18500
H2784       H  0.80747879  0.03785693  0.79509256     0.14400
C2785       C  0.70364371  0.56694877  0.74359328     0.29800
C2786       C  0.72105764  0.57964690  0.75707457    -0.36500
C2787       C  0.73069150  0.59981810  0.74596098     0.15800
C2788       C  0.72353276  0.60677617  0.72318981     0.21600
C2789       C  0.70642877  0.59405741  0.70974578    -0.34700
C2790       C  0.69679421  0.57413395  0.72085702     0.15700
O2791       O  0.69113595  0.54840808  0.75078564    -0.26700
C2792       C  0.67589389  0.54378115  0.73245606     0.05500
C2793       C  0.67887139  0.55931854  0.71330839    -0.31600
O2794       O  0.73234842  0.62728394  0.71704208    -0.23400
C2795       C  0.74562487  0.63381372  0.73590188    -0.03400
C2796       C  0.74552252  0.61726823  0.75449833    -0.17800
H2797       H  0.72599156  0.57466726  0.77523666     0.20200
H2798       H  0.70018147  0.59992696  0.69217520     0.18600
H2799       H  0.66912209  0.56013818  0.69632738     0.18500
H2800       H  0.75311633  0.61890610  0.77232480     0.14400
C2801       C  0.75468935  0.67237183  0.60862657     0.29800
C2802       C  0.74147256  0.65669162  0.59425257    -0.36500
C2803       C  0.75053619  0.65368176  0.57082646     0.15800
C2804       C  0.77098804  0.66554927  0.56220704     0.21600
C2805       C  0.78439422  0.68084226  0.57664660    -0.34700
C2806       C  0.77547420  0.68372313  0.60001315     0.15700
O2807       O  0.74910034  0.67845084  0.63077004    -0.26700
C2808       C  0.76663410  0.69379965  0.63645063     0.05500
C2809       C  0.78356978  0.69767050  0.61795512    -0.31600
O2810       O  0.77515751  0.66167551  0.53940612    -0.23400
C2811       C  0.75745048  0.64682040  0.53322137    -0.03400
C2812       C  0.74165691  0.64100414  0.55210228    -0.17800
H2813       H  0.72499719  0.64783763  0.60072423     0.20200
H2814       H  0.80034445  0.69030033  0.56991877     0.18600
H2815       H  0.79929158  0.70935557  0.61764801     0.18500
H2816       H  0.72523294  0.63016778  0.55170958     0.14400
C2817       C  0.58264746  0.76364636  0.65689262     0.29800
C2818       C  0.60262453  0.77752984  0.66408060    -0.36500
C2819       C  0.62532665  0.76529589  0.67031630     0.15800
C2820       C  0.62815004  0.74100988  0.66957956     0.21600
C2821       C  0.60802726  0.72703727  0.66254512    -0.34700
C2822       C  0.58519957  0.73933317  0.65631053     0.15700
O2823       O  0.56041532  0.77170392  0.64900411    -0.26700
C2824       C  0.54823639  0.75242441  0.64342600     0.05500
C2825       C  0.56265270  0.73163283  0.64773725    -0.31600
O2826       O  0.65103550  0.73331576  0.67633916    -0.23400
C2827       C  0.66300539  0.75292588  0.68140295    -0.03400
C2828       C  0.64790787  0.77337913  0.67799223    -0.17800
H2829       H  0.60068669  0.79660885  0.66443716     0.20200
H2830       H  0.61010789  0.70797990  0.66179620     0.18600
H2831       H  0.55786195  0.71371707  0.64375269     0.18500
H2832       H  0.65265867  0.79145164  0.68127090     0.14400
C2833       C  0.78841619  0.88574460  0.74143413     0.29800
C2834       C  0.79764931  0.90607911  0.73006610    -0.36500
C2835       C  0.80890244  0.92273201  0.74498287     0.15800
C2836       C  0.81077209  0.91949098  0.76933980     0.21600
C2837       C  0.80129839  0.89952166  0.78064608    -0.34700
C2838       C  0.79029195  0.88296435  0.76584069     0.15700
O2839       O  0.77960859  0.86674645  0.73098718    -0.26700
C2840       C  0.77588820  0.85167698  0.74904514     0.05500
C2841       C  0.78217105  0.86104342  0.77104184    -0.31600
O2842       O  0.82362939  0.93595965  0.77981587    -0.23400
C2843       C  0.83015937  0.95034996  0.76215097    -0.03400
C2844       C  0.82135391  0.94306033  0.73997730    -0.17800
H2845       H  0.79711328  0.90826902  0.71087603     0.20200
H2846       H  0.80342724  0.89656155  0.79966028     0.18600
H2847       H  0.78237530  0.85226496  0.78828845     0.18500
H2848       H  0.82478035  0.95083484  0.72263756     0.14400
C2849       C  0.76377377  0.79872687  0.87440255     0.29800
C2850       C  0.77606677  0.80053650  0.89649065    -0.36500
C2851       C  0.76280328  0.81367896  0.91387603     0.15800
C2852       C  0.73929377  0.82463966  0.90965394     0.21600
C2853       C  0.72664468  0.82218609  0.88784140    -0.34700
C2854       C  0.73974195  0.80877474  0.87057953     0.15700
O2855       O  0.77300591  0.78794817  0.85537971    -0.26700
C2856       C  0.75448478  0.79084352  0.83931736     0.05500
C2857       C  0.73323575  0.80347434  0.84781643    -0.31600
O2858       O  0.73174838  0.83837926  0.92730419    -0.23400
C2859       C  0.75048562  0.83598576  0.94323699    -0.03400
C2860       C  0.77004569  0.82034877  0.93603015    -0.17800
H2861       H  0.79492644  0.79278491  0.89967952     0.20200
H2862       H  0.70824063  0.83076219  0.88431242     0.18600
H2863       H  0.71569517  0.80818939  0.83848737     0.18500
H2864       H  0.78795808  0.81619641  0.94495139     0.14400
C2865       C  0.92899194  0.73552156  0.85273096     0.29800
C2866       C  0.91709955  0.71934869  0.83769381    -0.36500
C2867       C  0.89277533  0.72650603  0.82876661     0.15800
C2868       C  0.88132554  0.74807830  0.83435162     0.21600
C2869       C  0.89302648  0.76399547  0.84927769    -0.34700
C2870       C  0.91703777  0.75690403  0.85803720     0.15700
O2871       O  0.95152822  0.73277452  0.86337004    -0.26700
C2872       C  0.95379849  0.75272422  0.87561923     0.05500
C2873       C  0.93283349  0.76831338  0.87264233    -0.31600
O2874       O  0.85948699  0.75208842  0.82338453    -0.23400
C2875       C  0.85632134  0.73289145  0.81045445    -0.13000
C2876       C  0.87641098  0.71612234  0.81319092    -0.17800
H2877       H  0.92620981  0.70252949  0.83313688     0.20200
H2878       H  0.88409717  0.78098574  0.85353465     0.18600
H2879       H  0.92933108  0.78559402  0.88025316     0.18500
H2880       H  0.87916753  0.69943923  0.80415403     0.14400
loop_ 
_geom_bond_atom_site_label_1 
_geom_bond_atom_site_label_2 
_geom_bond_distance 
_geom_bond_site_symmetry_2 
_ccdc_geom_bond_type 
Zr1           O2   2.439       .  S
Zr1           O3   2.438       .  S
Zr1           O4   2.427       .  S
Zr1           O7   2.398       .  S
Zr1           O9   2.370       .  S
Zr1          O10   2.380       .  S
Zr1          O11   2.405       .  S
Zr1          O12   2.404       .  S
O2           H58   0.990       .  S
O2           H66   0.990       .  S
O3           C23   1.283       .  A
O4           C25   1.283       .  A
O5          Zr15   2.491       .  S
O5           C24   1.294       .  A
O6          Zr14   2.483       .  S
O6           C25   1.292       .  A
O7           C24   1.279       .  A
O8          Zr16   2.417       .  S
O8           C23   1.280       .  A
O9          Zr14   2.392       .  S
O9          Zr16   2.380       .  S
O10         Zr15   2.391       .  S
O10         Zr16   2.372       .  S
O10          H45   0.966       .  S
O11         Zr14   2.397       .  S
O11         Zr31   2.407       .  S
O11          H48   0.965       .  S
O12         Zr15   2.396       .  S
O12         Zr31   2.407       .  S
Zr13         O38   2.443       .  S
Zr13         O32   2.424       .  S
Zr13         O40   2.404       .  S
Zr13         O28   2.410       .  S
Zr13         O19   2.405       .  S
Zr13         O20   2.401       .  S
Zr13         O21   2.380       .  S
Zr13         O22   2.379       .  S
Zr14         O33   2.435       .  S
Zr14         O26   2.435       .  S
Zr14         O27   2.460       .  S
Zr14         O20   2.407       .  S
Zr14         O21   2.408       .  S
Zr15         O17   2.434       .  S
Zr15         O39   2.438       .  S
Zr15         O41   2.469       .  S
Zr15         O19   2.409       .  S
Zr15         O22   2.409       .  S
Zr16         O42   2.435       .  S
Zr16         O43   2.435       .  S
Zr16         O18   2.437       .  S
Zr16         O19   2.396       .  S
Zr16         O20   2.378       .  S
O17          H54   0.990       .  S
O18          H49   0.990       .  S
O18          H63   0.990       .  S
O20          H46   0.964       .  S
O21         Zr31   2.377       .  S
O22         Zr31   2.378       .  S
O22          H47   0.966       .  S
C23        C2856   1.464       .  S
C24        C2875   1.482       .  S
C25        C2840   1.490       .  S
O26          H62   0.990       .  S
O27          C29   1.291       .  A
O28          C29   1.280       .  A
C29        C2827   1.470       .  S
O30         Zr31   2.435       .  S
O30          H59   0.990       .  S
Zr31         O34   2.435       .  S
Zr31         O35   2.438       .  S
Zr31         O36   2.452       .  S
O32          C37   1.279       .  A
O33          H50   0.990       .  S
O33          H65   0.990       .  S
O34          H51   0.990       .  S
O35          H55   0.990       .  S
O35          H64   0.990       .  S
O36          C37   1.287       .  A
C37        C2808   1.482       .  S
O38          H57   0.991       .  S
O38          H61   0.990       .  S
O39          H53   0.990       .  S
O39          H60   0.990       .  S
O40          C44   1.277       .  A
O41          C44   1.290       .  A
O42          H52   0.990       .  S
O43          H56   0.990       .  S
C44        C2795   1.476       .  S
C67          C68   1.535       .  S
C67          C73   1.534   1_565  S
C67          C71   1.535       .  S
C67        C2763   1.521       .  S
C68          H75   1.086       .  S
C68          C69   1.370       .  D
C69          C70   1.554       .  S
C69        C2843   1.494       .  S
C70          C74   1.548   1_565  S
C70          C72   1.550       .  S
C70          H76   1.109       .  S
C71          H77   1.086       .  S
C71          C72   1.369       .  D
C72        C2744   1.490       .  S
C73          H78   1.086       .  S
C73          C74   1.365       .  D
C74        C2779   1.484       .  S
Zr79         O80   2.441       .  S
Zr79         O81   2.434       .  S
Zr79         O82   2.435       .  S
Zr79         O85   2.420       .  S
Zr79         O87   2.381       .  S
Zr79         O88   2.390       .  S
Zr79         O89   2.403       .  S
Zr79         O90   2.399       .  S
O80         H136   0.990       .  S
O80         H144   0.990       .  S
O81         C101   1.282       .  A
O82         C103   1.284       .  A
O83         Zr93   2.433       .  S
O83         C102   1.286       .  A
O84         Zr92   2.460       .  S
O84         C103   1.288       .  A
O85         C102   1.282       .  A
O86         Zr94   2.426       .  S
O86         C101   1.283       .  A
O87         Zr92   2.404       .  S
O87         Zr94   2.381       .  S
O88         Zr93   2.399       .  S
O88         Zr94   2.374       .  S
O88         H123   0.966       .  S
O89         Zr92   2.409       .  S
O89        Zr109   2.390       .  S
O89         H126   0.965       .  S
O90         Zr93   2.396       .  S
O90        Zr109   2.378       .  S
Zr91        O116   2.442       .  S
Zr91        O110   2.438       .  S
Zr91        O118   2.415       .  S
Zr91        O106   2.401       .  S
Zr91         O97   2.395       .  S
Zr91         O98   2.405       .  S
Zr91         O99   2.374       .  S
Zr91        O100   2.377       .  S
Zr92        O111   2.437       .  S
Zr92        O104   2.433       .  S
Zr92        O105   2.464       .  S
Zr92         O98   2.404       .  S
Zr92         O99   2.397       .  S
Zr93         O95   2.435       .  S
Zr93        O117   2.437       .  S
Zr93        O119   2.470       .  S
Zr93         O97   2.382       .  S
Zr93        O100   2.389       .  S
Zr94        O120   2.434       .  S
Zr94        O121   2.436       .  S
Zr94         O96   2.437       .  S
Zr94         O97   2.396       .  S
Zr94         O98   2.399       .  S
O95         H132   0.990       .  S
O96         H127   0.990       .  S
O96         H141   0.990       .  S
O98         H124   0.966       .  S
O99        Zr109   2.377       .  S
O100       Zr109   2.382       .  S
O100        H125   0.966       .  S
C101       C2728   1.471       .  S
C102       C2715   1.466       .  S
C103       C2776   1.482       .  S
O104        H140   0.990       .  S
O105        C107   1.289       .  A
O106        C107   1.277       .  A
C107       C2699   1.471       .  S
O108       Zr109   2.435       .  S
O108        H137   0.990       .  S
Zr109       O112   2.435       .  S
Zr109       O113   2.439       .  S
Zr109       O114   2.399       .  S
O110        C115   1.285       .  A
O111        H128   0.990       .  S
O111        H143   0.990       .  S
O112        H129   0.990       .  S
O113        H133   0.990       .  S
O113        H142   0.990       .  S
O114        C115   1.277       .  A
C115       C2683   1.461       .  S
O116        H135   0.991       .  S
O116        H139   0.991       .  S
O117        H131   0.990       .  S
O117        H138   0.990       .  S
O118        C122   1.280       .  A
O119        C122   1.291       .  A
O120        H130   0.990       .  S
O121        H134   0.990       .  S
C122       C2664   1.481       .  S
C145        C146   1.525       .  S
C145        C151   1.538       .  S
C145        C149   1.532       .  S
C145       C2792   1.524       .  S
C146        H153   1.087       .  S
C146        C147   1.365       .  D
C147        C148   1.559       .  S
C147       C2635   1.491       .  S
C148        C152   1.557       .  S
C148        C150   1.555       .  S
C148        H154   1.109       .  S
C149        H155   1.086       .  S
C149        C150   1.370       .  D
C150       C2667   1.491       .  S
C151        H156   1.083       .  S
C151        C152   1.369       .  D
C152       C2648   1.501       .  S
C157        C158   1.526       .  S
C157        C163   1.525       .  S
C157        C161   1.530       .  S
C157       C2616   1.502       .  S
C158        H165   1.087       .  S
C158        C159   1.361       .  D
C159        C160   1.551       .  S
C159       C2584   1.478       .  S
C160        C164   1.549       .  S
C160        C162   1.548       .  S
C160        H166   1.110       .  S
C161        H167   1.086       .  S
C161        C162   1.367       .  D
C162       C2811   1.480       .  S
C163        H168   1.087       .  S
C163        C164   1.365       .  D
C164       C2600   1.475       .  S
Zr169       O170   2.442       .  S
Zr169       O171   2.454       .  S
Zr169       O172   2.447       .  S
Zr169       O175   2.432       .  S
Zr169       O177   2.380       .  S
Zr169       O178   2.385       .  S
Zr169       O179   2.408       .  S
Zr169       O180   2.407       .  S
O170        H226   0.990       .  S
O170        H234   0.991       .  S
O171        C191   1.286       .  A
O172        C193   1.286       .  A
O173       Zr183   2.457       .  S
O173        C192   1.289       .  A
O174       Zr182   2.481       .  S
O174        C193   1.292       .  A
O175        C192   1.285       .  A
O176       Zr184   2.404       .  S
O176        C191   1.278       .  A
O177       Zr182   2.402       .  S
O177       Zr184   2.384       .  S
O178       Zr183   2.390       .  S
O178       Zr184   2.378       .  S
O178        H213   0.966       .  S
O179       Zr182   2.403       .  S
O179       Zr199   2.391       .  S
O179        H216   0.966       .  S
O180       Zr183   2.398       .  S
O180       Zr199   2.398       .  S
Zr181       O206   2.448       .  S
Zr181       O200   2.419       .  S
Zr181       O208   2.445       .  S
Zr181       O196   2.431       .  S
Zr181       O187   2.395       .  S
Zr181       O188   2.403       .  S
Zr181       O189   2.386       .  S
Zr181       O190   2.382       .  S
Zr182       O201   2.435       .  S
Zr182       O194   2.434       .  S
Zr182       O195   2.468       .  S
Zr182       O188   2.411       .  S
Zr182       O189   2.397       .  S
Zr183       O185   2.438       .  S
Zr183       O207   2.435       .  S
Zr183       O209   2.464       .  S
Zr183       O187   2.396       .  S
Zr183       O190   2.396       .  S
Zr184       O210   2.436       .  S
Zr184       O211   2.437       .  S
Zr184       O186   2.437       .  S
Zr184       O187   2.393       .  S
Zr184       O188   2.381       .  S
O185        H222   0.990       .  S
O186        H217   0.990       .  S
O186        H231   0.990       .  S
O188        H214   0.966       .  S
O189       Zr199   2.369       .  S
O190       Zr199   2.377       .  S
O190        H215   0.966       .  S
C191       C2504   1.464       .  S
C192       C2568   1.483       .  S
C193       C2520   1.496       .  S
O194        H230   0.990       .  S
O195        C197   1.292       .  A
O196        C197   1.284       .  A
C197       C2536   1.482       .  S
O198       Zr199   2.434       .  S
O198        H227   0.990       .  S
Zr199       O202   2.437       .  S
Zr199       O203   2.437       .  S
Zr199       O204   2.427       .  S
O200        C205   1.282       .  A
O201        H218   0.990       .  S
O201        H233   0.990       .  S
O202        H219   0.990       .  S
O203        H223   0.990       .  S
O203        H232   0.990       .  S
O204        C205   1.282       .  A
C205       C2619   1.465       .  S
O206        H225   0.991       .  S
O206        H229   0.990       .  S
O207        H221   0.990       .  S
O207        H228   0.990       .  S
O208        C212   1.286       .  A
O209        C212   1.289       .  A
O210        H220   0.990       .  S
O211        H224   0.990       .  S
C212       C2552   1.483       .  S
C235        C236   1.529       .  S
C235        C241   1.537       .  S
C235        C239   1.539       .  S
C235       C2859   1.508       .  S
C236        H243   1.087       .  S
C236        C237   1.361       .  D
C237        C238   1.540   1_556  S
C237       C2488   1.475       .  S
C238        C242   1.531   1_554  S
C238        C240   1.539       .  S
C238        H244   1.107       .  S
C239        H245   1.086       .  S
C239        C240   1.371   1_556  D
C240       C2507   1.480       .  S
C241        H246   1.086       .  S
C241        C242   1.363       .  D
C242       C2475   1.464       .  S
C247        C248   1.531       .  S
C247        C253   1.530       .  S
C247        C251   1.527       .  S
C247       C2440   1.509       .  S
C248        H255   1.085       .  S
C248        C249   1.369       .  D
C249        C250   1.546       .  S
C249       C2424   1.488       .  S
C250        C254   1.550       .  S
C250        C252   1.547       .  S
C250        H256   1.111       .  S
C251        H257   1.086       .  S
C251        C252   1.366       .  D
C252       C2456   1.478       .  S
C253        H258   1.085       .  S
C253        C254   1.370       .  D
C254       C2571   1.490       .  S
C259        C260   1.528       .  S
C259        C265   1.530       .  S
C259        C263   1.526       .  S
C259       C2360   1.515       .  S
C260        H267   1.086       .  S
C260        C261   1.370       .  D
C261        C262   1.562       .  S
C261       C2392   1.501       .  S
C262        C266   1.561       .  S
C262        C264   1.555   1_565  S
C262        H268   1.109   1_565  S
C263        H269   1.087       .  S
C263        C264   1.365   1_565  D
C264       C2376   1.483       .  S
C265        H270   1.086       .  S
C265        C266   1.369       .  D
C266       C2408   1.501       .  S
C271        C272   1.530       .  S
C271        C277   1.526       .  S
C271        C275   1.531       .  S
C271       C2680   1.499       .  S
C272        H279   1.087       .  S
C272        C273   1.362       .  D
C273        C274   1.538   1_556  S
C273       C2328   1.470       .  S
C274        C278   1.541   1_554  S
C274        C276   1.544       .  S
C274        H280   1.111       .  S
C275        H281   1.086       .  S
C275        C276   1.369   1_556  D
C276       C2312   1.469       .  S
C277        H282   1.085       .  S
C277        C278   1.362       .  D
C278       C2344   1.474   1_556  S
C283        C284   1.526       .  S
C283        C289   1.536       .  S
C283        C287   1.531       .  S
C283       C2296   1.505       .  S
C284        H291   1.085       .  S
C284        C285   1.359       .  D
C285        C286   1.538   1_554  S
C285       C2280   1.471       .  S
C286        C290   1.537   1_556  S
C286        C288   1.537       .  S
C286        H292   1.111       .  S
C287        H293   1.086       .  S
C287        C288   1.368   1_554  D
C288       C2248   1.471       .  S
C289        H294   1.086       .  S
C289        C290   1.371       .  D
C290       C2264   1.472       .  S
C295        C296   1.536       .  S
C295        C301   1.529       .  S
C295        C299   1.531       .  S
C295       C2187   1.525       .  S
C296        H303   1.082       .  S
C296        C297   1.368       .  D
C297        C298   1.561       .  S
C297       C2232   1.504       .  S
C298        C302   1.563       .  S
C298        C300   1.553       .  S
C298        H304   1.110       .  S
C299        H305   1.085       .  S
C299        C300   1.371       .  D
C300       C2200   1.494       .  S
C301        H306   1.087       .  S
C301        C302   1.366       .  D
C302       C2216   1.496       .  S
C307        C308   1.536       .  S
C307        C313   1.525       .  S
C307        C311   1.527       .  S
C307       C2139   1.503       .  S
C308        H315   1.082       .  S
C308        C309   1.369       .  D
C309        C310   1.542       .  S
C309       C2168   1.484       .  S
C310        C314   1.552       .  S
C310        C312   1.539       .  S
C310        H316   1.110       .  S
C311        H317   1.087       .  S
C311        C312   1.361       .  D
C312       C2731   1.472       .  S
C313        H318   1.085       .  S
C313        C314   1.367       .  D
C314       C2152   1.484       .  S
C319        C320   1.530   1_455  S
C319        C325   1.528       .  S
C319        C323   1.536       .  S
C319       C2120   1.511       .  S
C320        H327   1.087       .  S
C320        C321   1.365       .  D
C321        C322   1.557       .  S
C321       C2539   1.491       .  S
C322        C326   1.546   1_655  S
C322        C324   1.548       .  S
C322        H328   1.110       .  S
C323        H329   1.086       .  S
C323        C324   1.370   1_455  D
C324       C2104   1.483   1_655  S
C325        H330   1.086       .  S
C325        C326   1.362       .  D
C326       C2091   1.476       .  S
Zr331       O332   2.443       .  S
Zr331       O333   2.434       .  S
Zr331       O334   2.443       .  S
Zr331       O337   2.395       .  S
Zr331       O339   2.368       .  S
Zr331       O340   2.387       .  S
Zr331       O341   2.396       .  S
Zr331       O342   2.404       .  S
O332        H388   0.991       .  S
O332        H396   0.991       .  S
O333        C353   1.284       .  A
O334        C355   1.285       .  A
O335       Zr345   2.486       .  S
O335        C354   1.293       .  A
O336       Zr344   2.490       .  S
O336        C355   1.293       .  A
O337        C354   1.278       .  A
O338       Zr346   2.398       .  S
O338        C353   1.276       .  A
O339       Zr344   2.402       .  S
O339       Zr346   2.391       .  S
O340       Zr345   2.403       .  S
O340       Zr346   2.377       .  S
O340        H375   0.966       .  S
O341       Zr344   2.403       .  S
O341       Zr361   2.396       .  S
O341        H378   0.965       .  S
O342       Zr345   2.402       .  S
O342       Zr361   2.392       .  S
Zr343       O368   2.440       .  S
Zr343       O362   2.408       .  S
Zr343       O370   2.425       .  S
Zr343       O358   2.423       .  S
Zr343       O349   2.394       .  S
Zr343       O350   2.398       .  S
Zr343       O351   2.381       .  S
Zr343       O352   2.384       .  S
Zr344       O363   2.433       .  S
Zr344       O356   2.436       .  S
Zr344       O357   2.467       .  S
Zr344       O350   2.418       .  S
Zr344       O351   2.405       .  S
Zr345       O347   2.438       .  S
Zr345       O369   2.434       .  S
Zr345       O371   2.482       .  S
Zr345       O349   2.396       .  S
Zr345       O352   2.402       .  S
Zr346       O372   2.439       .  S
Zr346       O373   2.437       .  S
Zr346       O348   2.435       .  S
Zr346       O349   2.387       .  S
Zr346       O350   2.376       .  S
O347        H384   0.990       .  S
O348        H379   0.990       .  S
O348        H393   0.990       .  S
O350        H376   0.965       .  S
O351       Zr361   2.380       .  S
O352       Zr361   2.373       .  S
O352        H377   0.966       .  S
C353       C2299   1.461       .  S
C354       C2427   1.481       .  S
C355       C2056   1.503       .  S
O356        H392   0.990       .  S
O357        C359   1.290       .  A
O358        C359   1.284       .  A
C359       C2088   1.480       .  S
O360       Zr361   2.435       .  S
O360        H389   0.990       .  S
Zr361       O364   2.435       .  S
Zr361       O365   2.438       .  S
Zr361       O366   2.428       .  S
O362        C367   1.279       .  A
O363        H380   0.990       .  S
O363        H395   0.990       .  S
O364        H381   0.990       .  S
O365        H385   0.990       .  S
O365        H394   0.990       .  S
O366        C367   1.282       .  A
C367       C2040   1.462       .  S
O368        H387   0.990       .  S
O368        H391   0.991       .  S
O369        H383   0.990       .  S
O369        H390   0.990       .  S
O370        C374   1.284       .  A
O371        C374   1.293       .  A
O372        H382   0.990       .  S
O373        H386   0.990       .  S
C374       C2075   1.490       .  S
C397        C398   1.522       .  S
C397        C403   1.525       .  S
C397        C401   1.530       .  S
C397       C2043   1.500       .  S
C398        H405   1.087       .  S
C398        C399   1.361       .  D
C399        C400   1.553       .  S
C399       C2027   1.481       .  S
C400        C404   1.554       .  S
C400        C402   1.548       .  S
C400        H406   1.110       .  S
C401        H407   1.087       .  S
C401        C402   1.365       .  D
C402       C1995   1.478       .  S
C403        H408   1.086       .  S
C403        C404   1.369       .  D
C404       C2011   1.485       .  S
C409        C410   1.525       .  S
C409        C415   1.533       .  S
C409        C413   1.541       .  S
C409       C1944   1.524       .  S
C410        H417   1.087       .  S
C410        C411   1.362       .  D
C411        C412   1.556       .  S
C411       C1979   1.484       .  S
C412        C416   1.553       .  S
C412        C414   1.549       .  S
C412        H418   1.110       .  S
C413        H419   1.085       .  S
C413        C414   1.376       .  D
C414       C1960   1.499       .  S
C415        H420   1.083       .  S
C415        C416   1.363       .  D
C416       C2555   1.485       .  S
Zr421       O422   2.442       .  S
Zr421       O423   2.429       .  S
Zr421       O424   2.431       .  S
Zr421       O427   2.394       .  S
Zr421       O429   2.372       .  S
Zr421       O430   2.388       .  S
Zr421       O431   2.400       .  S
Zr421       O432   2.399       .  S
O422        H478   0.990       .  S
O422        H486   0.991       .  S
O423        C443   1.280       .  A
O424        C445   1.281       .  A
O425       Zr435   2.452       .  S
O425        C444   1.287       .  A
O426       Zr434   2.453       .  S
O426        C445   1.287       .  A
O427        C444   1.278       .  A
O428       Zr436   2.416       .  S
O428        C443   1.280       .  A
O429       Zr434   2.394       .  S
O429       Zr436   2.383       .  S
O430       Zr435   2.407       .  S
O430       Zr436   2.381       .  S
O430        H465   0.966       .  S
O431       Zr434   2.398       .  S
O431       Zr451   2.394       .  S
O431        H468   0.965       .  S
O432       Zr435   2.399       .  S
O432       Zr451   2.381       .  S
Zr433       O458   2.440       .  S
Zr433       O452   2.432       .  S
Zr433       O460   2.437       .  S
Zr433       O448   2.422       .  S
Zr433       O439   2.394       .  S
Zr433       O440   2.408       .  S
Zr433       O441   2.378       .  S
Zr433       O442   2.372       .  S
Zr434       O453   2.435       .  S
Zr434       O446   2.435       .  S
Zr434       O447   2.422       .  S
Zr434       O440   2.410       .  S
Zr434       O441   2.400       .  S
Zr435       O437   2.436       .  S
Zr435       O459   2.434       .  S
Zr435       O461   2.476       .  S
Zr435       O439   2.392       .  S
Zr435       O442   2.396       .  S
Zr436       O462   2.436       .  S
Zr436       O463   2.436       .  S
Zr436       O438   2.438       .  S
Zr436       O439   2.397       .  S
Zr436       O440   2.393       .  S
O437        H474   0.990       .  S
O438        H469   0.990       .  S
O438        H483   0.990       .  S
O440        H466   0.966       .  S
O441       Zr451   2.373       .  S
O442       Zr451   2.382       .  S
O442        H467   0.966       .  S
C443       C1931   1.465       .  S
C444       C2315   1.467       .  S
C445       C1976   1.477       .  S
O446        H482   0.990       .  S
O447        C449   1.281       .  A
O448        C449   1.282       .  A
C449       C2136   1.455       .  S
O450       Zr451   2.435       .  S
O450        H479   0.990       .  S
Zr451       O454   2.436       .  S
Zr451       O455   2.437       .  S
Zr451       O456   2.411       .  S
O452        C457   1.283       .  A
O453        H470   0.990       .  S
O453        H485   0.990       .  S
O454        H471   0.990       .  S
O455        H475   0.990       .  S
O455        H484   0.990       .  S
O456        C457   1.279       .  A
C457       C1912   1.463       .  S
O458        H477   0.990       .  S
O458        H481   0.990       .  S
O459        H473   0.990       .  S
O459        H480   0.990       .  S
O460        C464   1.286       .  A
O461        C464   1.291       .  A
O462        H472   0.990       .  S
O463        H476   0.990       .  S
C464       C1896   1.494       .  S
C487        C488   1.541       .  S
C487        C493   1.535   1_545  S
C487        C491   1.546       .  S
C487       C1864   1.542       .  S
C488        H495   1.082       .  S
C488        C489   1.367       .  D
C489        C490   1.553       .  S
C489       C1899   1.503       .  S
C490        C494   1.556   1_545  S
C490        C492   1.549       .  S
C490        H496   1.110       .  S
C491        H497   1.086       .  S
C491        C492   1.375       .  D
C492       C1883   1.497       .  S
C493        H498   1.086       .  S
C493        C494   1.368       .  D
C494       C2523   1.497       .  S
C499        C500   1.519       .  S
C499        C505   1.531       .  S
C499        C503   1.520       .  S
C499       C1832   1.498       .  S
C500        H507   1.087       .  S
C500        C501   1.363       .  D
C501        C502   1.562       .  S
C501       C2696   1.486       .  S
C502        C506   1.549       .  S
C502        C504   1.554       .  S
C502        H508   1.110       .  S
C503        H509   1.085       .  S
C503        C504   1.365       .  D
C504       C1816   1.484       .  S
C505        H510   1.086       .  S
C505        C506   1.366       .  D
C506       C1851   1.480       .  S
Zr511       O512   2.441       .  S
Zr511       O513   2.419       .  S
Zr511       O514   2.430       .  S
Zr511       O517   2.414       .  S
Zr511       O519   2.380       .  S
Zr511       O520   2.381       .  S
Zr511       O521   2.395       .  S
Zr511       O522   2.396       .  S
O512        H568   0.991       .  S
O512        H576   0.990       .  S
O513        C533   1.281       .  A
O514        C535   1.283       .  A
O515       Zr525   2.450       .  S
O515        C534   1.286       .  A
O516       Zr524   2.468       .  S
O516        C535   1.291       .  A
O517        C534   1.281       .  A
O518       Zr526   2.416       .  S
O518        C533   1.280       .  A
O519       Zr524   2.403       .  S
O519       Zr526   2.386       .  S
O520       Zr525   2.398       .  S
O520       Zr526   2.372       .  S
O520        H555   0.966       .  S
O521       Zr524   2.406       .  S
O521       Zr541   2.385       .  S
O521        H558   0.965       .  S
O522       Zr525   2.398       .  S
O522       Zr541   2.391       .  S
Zr523       O548   2.441       .  S
Zr523       O542   2.429       .  S
Zr523       O550   2.422       .  S
Zr523       O538   2.418       .  S
Zr523       O529   2.395       .  S
Zr523       O530   2.404       .  S
Zr523       O531   2.377       .  S
Zr523       O532   2.379       .  S
Zr524       O543   2.435       .  S
Zr524       O536   2.435       .  S
Zr524       O537   2.469       .  S
Zr524       O530   2.407       .  S
Zr524       O531   2.402       .  S
Zr525       O527   2.437       .  S
Zr525       O549   2.438       .  S
Zr525       O551   2.443       .  S
Zr525       O529   2.402       .  S
Zr525       O532   2.400       .  S
Zr526       O552   2.436       .  S
Zr526       O553   2.436       .  S
Zr526       O528   2.438       .  S
Zr526       O529   2.390       .  S
Zr526       O530   2.387       .  S
O527        H564   0.990       .  S
O528        H559   0.990       .  S
O528        H573   0.990       .  S
O530        H556   0.965       .  S
O531       Zr541   2.379       .  S
O532       Zr541   2.378       .  S
O532        H557   0.965       .  S
C533       C1787   1.461       .  S
C534       C1771   1.465       .  S
C535       C2203   1.484       .  S
O536        H572   0.990       .  S
O537        C539   1.289       .  A
O538        C539   1.283       .  A
C539       C1848   1.483       .  S
O540       Zr541   2.436       .  S
O540        H569   0.990       .  S
Zr541       O544   2.436       .  S
Zr541       O545   2.439       .  S
Zr541       O546   2.403       .  S
O542        C547   1.280       .  A
O543        H560   0.990       .  S
O543        H575   0.990       .  S
O544        H561   0.990       .  S
O545        H565   0.990       .  S
O545        H574   0.990       .  S
O546        C547   1.277       .  A
C547       C1803   1.457       .  S
O548        H567   0.990       .  S
O548        H571   0.990       .  S
O549        H563   0.990       .  S
O549        H570   0.990       .  S
O550        C554   1.280       .  A
O551        C554   1.285       .  A
O552        H562   0.990       .  S
O553        H566   0.990       .  S
C554       C2379   1.471       .  S
C577        C578   1.527   1_655  S
C577        C583   1.527       .  S
C577        C581   1.542       .  S
C577       C1736   1.519       .  S
C578        H585   1.085       .  S
C578        C579   1.368       .  D
C579        C580   1.547   1_455  S
C579       C1768   1.485       .  S
C580        C584   1.542       .  S
C580        C582   1.540       .  S
C580        H586   1.111       .  S
C581        H587   1.086       .  S
C581        C582   1.375       .  D
C582       C1752   1.484       .  S
C583        H588   1.087       .  S
C583        C584   1.363       .  D
C584       C2712   1.473       .  S
C589        C590   1.532       .  S
C589        C595   1.534   1_655  S
C589        C593   1.524       .  S
C589       C1720   1.499       .  S
C590        H597   1.086       .  S
C590        C591   1.364       .  D
C591        C592   1.538       .  S
C591       C1928   1.468       .  S
C592        C596   1.540   1_655  S
C592        C594   1.540       .  S
C592        H598   1.110       .  S
C593        H599   1.087       .  S
C593        C594   1.360       .  D
C594       C1691   1.466       .  S
C595        H600   1.085       .  S
C595        C596   1.370       .  D
C596       C1704   1.480       .  S
Zr601       O602   2.438       .  S
Zr601       O603   2.425       .  S
Zr601       O604   2.451       .  S
Zr601       O607   2.427       .  S
Zr601       O609   2.377   1_545  S
Zr601       O610   2.386   1_554  S
Zr601       O611   2.403   1_545  S
Zr601       O612   2.402   1_455  S
O602        H658   0.990       .  S
O602        H666   0.990       .  S
O603        C623   1.284       .  A
O604        C625   1.287   1_545  A
O605       Zr615   2.427       .  S
O605        C624   1.283   1_656  A
O606       Zr614   2.476       .  S
O606        C625   1.292       .  A
O607        C624   1.284       .  A
O608       Zr616   2.437   1_544  S
O608        C623   1.283       .  A
O609       Zr614   2.396       .  S
O609       Zr616   2.381   1_554  S
O610       Zr615   2.389   1_455  S
O610       Zr616   2.374   1_545  S
O610        H645   0.966       .  S
O611       Zr614   2.399       .  S
O611       Zr631   2.398   1_455  S
O611        H648   0.966       .  S
O612       Zr615   2.394   1_554  S
O612       Zr631   2.384   1_545  S
Zr613       O638   2.442   1_655  S
Zr613       O632   2.422       .  S
Zr613       O640   2.438       .  S
Zr613       O628   2.396       .  S
Zr613       O619   2.394   1_655  S
Zr613       O620   2.409   1_656  S
Zr613       O621   2.382   1_556  S
Zr613       O622   2.375       .  S
Zr614       O633   2.439       .  S
Zr614       O626   2.433       .  S
Zr614       O627   2.461       .  S
Zr614       O620   2.408       .  S
Zr614       O621   2.394   1_455  S
Zr615       O617   2.436       .  S
Zr615       O639   2.436   1_655  S
Zr615       O641   2.453       .  S
Zr615       O619   2.385   1_645  S
Zr615       O622   2.384   1_545  S
Zr616       O642   2.436   1_565  S
Zr616       O643   2.436       .  S
Zr616       O618   2.438   1_556  S
Zr616       O619   2.408       .  S
Zr616       O620   2.403   1_556  S
O617        H654   0.990       .  S
O618        H649   0.990       .  S
O618        H663   0.990   1_554  S
O620        H646   0.966   1_554  S
O621       Zr631   2.372       .  S
O622       Zr631   2.379   1_556  S
O622        H647   0.966   1_565  S
C623       C1656   1.473       .  S
C624       C1723   1.457       .  S
C625       C1675   1.494       .  S
O626        H662   0.990       .  S
O627        C629   1.289       .  A
O628        C629   1.278   1_656  A
C629       C1643   1.463       .  S
O630       Zr631   2.435   1_545  S
O630        H659   0.990       .  S
Zr631       O634   2.435       .  S
Zr631       O635   2.437   1_565  S
Zr631       O636   2.427       .  S
O632        C637   1.283   1_556  A
O633        H650   0.990       .  S
O633        H665   0.990   1_455  S
O634        H651   0.990       .  S
O635        H655   0.990       .  S
O635        H664   0.990       .  S
O636        C637   1.282       .  A
C637       C2491   1.467       .  S
O638        H657   0.990       .  S
O638        H661   0.990       .  S
O639        H653   0.990       .  S
O639        H660   0.990       .  S
O640        C644   1.285       .  A
O641        C644   1.287   1_545  A
O642        H652   0.990       .  S
O643        H656   0.990       .  S
C644       C2760   1.483       .  S
Zr667       O668   2.441       .  S
Zr667       O669   2.416       .  S
Zr667       O670   2.441       .  S
Zr667       O673   2.407       .  S
Zr667       O675   2.375       .  S
Zr667       O676   2.384       .  S
Zr667       O677   2.396       .  S
Zr667       O678   2.396       .  S
O668        H724   0.990       .  S
O668        H732   0.990       .  S
O669        C689   1.280       .  A
O670        C691   1.284       .  A
O671       Zr681   2.432       .  S
O671        C690   1.283       .  A
O672       Zr680   2.481       .  S
O672        C691   1.294       .  A
O673        C690   1.281       .  A
O674       Zr682   2.437       .  S
O674        C689   1.283       .  A
O675       Zr680   2.401       .  S
O675       Zr682   2.382       .  S
O676       Zr681   2.398       .  S
O676       Zr682   2.369       .  S
O676        H711   0.966       .  S
O677       Zr680   2.403       .  S
O677       Zr697   2.381       .  S
O677        H714   0.965       .  S
O678       Zr681   2.399       .  S
O678       Zr697   2.375       .  S
Zr679       O704   2.446       .  S
Zr679       O698   2.441       .  S
Zr679       O706   2.432       .  S
Zr679       O694   2.392       .  S
Zr679       O685   2.398       .  S
Zr679       O686   2.411       .  S
Zr679       O687   2.384       .  S
Zr679       O688   2.372       .  S
Zr680       O699   2.436       .  S
Zr680       O692   2.434       .  S
Zr680       O693   2.475       .  S
Zr680       O686   2.406       .  S
Zr680       O687   2.397       .  S
Zr681       O683   2.435       .  S
Zr681       O705   2.436       .  S
Zr681       O707   2.465       .  S
Zr681       O685   2.390       .  S
Zr681       O688   2.380       .  S
Zr682       O708   2.435       .  S
Zr682       O709   2.436       .  S
Zr682       O684   2.439       .  S
Zr682       O685   2.410       .  S
Zr682       O686   2.396       .  S
O683        H720   0.990       .  S
O684        H715   0.990       .  S
O684        H729   0.990       .  S
O686        H712   0.966       .  S
O687       Zr697   2.379       .  S
O688       Zr697   2.377       .  S
O688        H713   0.966       .  S
C689       C1707   1.467       .  S
C690       C1624   1.459       .  S
C691       C1611   1.493       .  S
O692        H728   0.990       .  S
O693        C695   1.292       .  A
O694        C695   1.277       .  A
C695       C1576   1.471       .  S
O696       Zr697   2.435       .  S
O696        H725   0.990       .  S
Zr697       O700   2.434       .  S
Zr697       O701   2.438       .  S
Zr697       O702   2.388       .  S
O698        C703   1.285       .  A
O699        H716   0.990       .  S
O699        H731   0.990       .  S
O700        H717   0.990       .  S
O701        H721   0.990       .  S
O701        H730   0.990       .  S
O702        C703   1.276       .  A
C703       C1592   1.459       .  S
O704        H723   0.990       .  S
O704        H727   0.990       .  S
O705        H719   0.990       .  S
O705        H726   0.990       .  S
O706        C710   1.283       .  A
O707        C710   1.291       .  A
O708        H718   0.990       .  S
O709        H722   0.990       .  S
C710       C1563   1.487       .  S
C733        C734   1.525       .  S
C733        C739   1.528   1_545  S
C733        C737   1.543       .  S
C733       C1547   1.529       .  S
C734        H741   1.087       .  S
C734        C735   1.367       .  D
C735        C736   1.568       .  S
C735       C1608   1.503       .  S
C736        C740   1.561   1_545  S
C736        C738   1.557       .  S
C736        H742   1.110       .  S
C737        H743   1.086       .  S
C737        C738   1.377       .  D
C738       C1672   1.503       .  S
C739        H744   1.086       .  S
C739        C740   1.365       .  D
C740       C2072   1.499       .  S
Zr745       O746   2.445       .  S
Zr745       O747   2.463       .  S
Zr745       O748   2.451       .  S
Zr745       O751   2.425       .  S
Zr745       O753   2.379   1_655  S
Zr745       O754   2.386       .  S
Zr745       O755   2.415   1_545  S
Zr745       O756   2.414       .  S
O746        H802   0.991       .  S
O746        H810   0.991       .  S
O747        C767   1.287       .  A
O748        C769   1.285       .  A
O749       Zr759   2.448       .  S
O749        C768   1.286       .  A
O750       Zr758   2.467   1_655  S
O750        C769   1.290   1_565  A
O751        C768   1.283       .  A
O752       Zr760   2.406       .  S
O752        C767   1.278   1_455  A
O753       Zr758   2.399   1_545  S
O753       Zr760   2.388       .  S
O754       Zr759   2.398       .  S
O754       Zr760   2.376   1_655  S
O754        H789   0.966       .  S
O755       Zr758   2.408   1_655  S
O755       Zr775   2.392       .  S
O755        H792   0.965       .  S
O756       Zr759   2.404       .  S
O756       Zr775   2.400   1_545  S
Zr757       O782   2.441       .  S
Zr757       O776   2.441       .  S
Zr757       O784   2.435       .  S
Zr757       O772   2.426       .  S
Zr757       O763   2.394   1_565  S
Zr757       O764   2.409   1_565  S
Zr757       O765   2.382       .  S
Zr757       O766   2.379   1_455  S
Zr758       O777   2.439       .  S
Zr758       O770   2.435   1_565  S
Zr758       O771   2.457       .  S
Zr758       O764   2.409   1_565  S
Zr758       O765   2.411       .  S
Zr759       O761   2.434       .  S
Zr759       O783   2.439       .  S
Zr759       O785   2.467   1_655  S
Zr759       O763   2.388   1_655  S
Zr759       O766   2.401   1_545  S
Zr760       O786   2.435       .  S
Zr760       O787   2.436       .  S
Zr760       O762   2.437       .  S
Zr760       O763   2.385       .  S
Zr760       O764   2.389       .  S
O761        H798   0.990   1_545  S
O762        H793   0.990       .  S
O762        H807   0.990       .  S
O764        H790   0.965       .  S
O765       Zr775   2.376   1_455  S
O766       Zr775   2.380       .  S
O766        H791   0.966       .  S
C767       C1755   1.474       .  S
C768       C2155   1.475       .  S
C769       C2747   1.487       .  S
O770        H806   0.990       .  S
O771        C773   1.287       .  A
O772        C773   1.281       .  A
C773       C2008   1.467       .  S
O774       Zr775   2.436       .  S
O774        H803   0.990       .  S
Zr775       O778   2.436       .  S
Zr775       O779   2.440       .  S
Zr775       O780   2.425       .  S
O776        C781   1.284       .  A
O777        H794   0.990       .  S
O777        H809   0.991       .  S
O778        H795   0.990       .  S
O779        H799   0.990       .  S
O779        H808   0.990       .  S
O780        C781   1.281   1_655  A
C781       C2123   1.475       .  S
O782        H801   0.990       .  S
O782        H805   0.990       .  S
O783        H797   0.990       .  S
O783        H804   0.990       .  S
O784        C788   1.286       .  A
O785        C788   1.290   1_545  A
O786        H796   0.990       .  S
O787        H800   0.990       .  S
C788       C1544   1.491   1_565  S
C811        C812   1.534       .  S
C811        C817   1.532       .  S
C811        C815   1.523       .  S
C811       C1627   1.501       .  S
C812        H819   1.086       .  S
C812        C813   1.370       .  D
C813        C814   1.537       .  S
C813       C1531   1.471       .  S
C814        C818   1.544       .  S
C814        C816   1.536   1_554  S
C814        H820   1.110   1_554  S
C815        H821   1.086       .  S
C815        C816   1.365   1_554  D
C816       C1800   1.467       .  S
C817        H822   1.086       .  S
C817        C818   1.363       .  D
C818       C1659   1.480       .  S
Zr823       O824   2.441       .  S
Zr823       O825   2.427       .  S
Zr823       O826   2.442       .  S
Zr823       O829   2.410       .  S
Zr823       O831   2.374   1_545  S
Zr823       O832   2.388   1_556  S
Zr823       O833   2.393       .  S
Zr823       O834   2.399       .  S
O824        H880   0.990       .  S
O824        H888   0.990       .  S
O825        C845   1.282   1_556  A
O826        C847   1.285   1_545  A
O827       Zr837   2.440       .  S
O827        C846   1.286       .  A
O828       Zr836   2.465       .  S
O828        C847   1.290       .  A
O829        C846   1.282   1_556  A
O830       Zr838   2.423       .  S
O830        C845   1.281       .  A
O831       Zr836   2.401       .  S
O831       Zr838   2.383   1_566  S
O832       Zr837   2.396       .  S
O832       Zr838   2.368       .  S
O832        H867   0.966       .  S
O833       Zr836   2.396   1_545  S
O833       Zr853   2.389       .  S
O833        H870   0.966       .  S
O834       Zr837   2.398   1_556  S
O834       Zr853   2.379       .  S
Zr835       O860   2.441       .  S
Zr835       O854   2.437       .  S
Zr835       O862   2.448       .  S
Zr835       O850   2.420       .  S
Zr835       O841   2.400   1_565  S
Zr835       O842   2.407       .  S
Zr835       O843   2.384   1_554  S
Zr835       O844   2.378   1_565  S
Zr836       O855   2.437       .  S
Zr836       O848   2.434       .  S
Zr836       O849   2.450   1_556  S
Zr836       O842   2.405   1_556  S
Zr836       O843   2.396       .  S
Zr837       O839   2.435       .  S
Zr837       O861   2.435       .  S
Zr837       O863   2.462       .  S
Zr837       O841   2.391       .  S
Zr837       O844   2.390       .  S
Zr838       O864   2.437       .  S
Zr838       O865   2.434   1_545  S
Zr838       O840   2.438   1_545  S
Zr838       O841   2.401       .  S
Zr838       O842   2.376   1_545  S
O839        H876   0.990       .  S
O840        H871   0.990       .  S
O840        H885   0.990       .  S
O842        H868   0.964       .  S
O843       Zr853   2.378   1_565  S
O844       Zr853   2.381   1_554  S
O844        H869   0.965       .  S
C845       C1528   1.462       .  S
C846       C1835   1.463   1_554  S
C847       C2395   1.490       .  S
O848        H884   0.990       .  S
O849        C851   1.288       .  A
O850        C851   1.284       .  A
C851       C2459   1.470       .  S
O852       Zr853   2.435       .  S
O852        H881   0.990       .  S
Zr853       O856   2.436   1_545  S
Zr853       O857   2.438       .  S
Zr853       O858   2.397   1_545  S
O854        C859   1.284       .  A
O855        H872   0.990       .  S
O855        H887   0.990       .  S
O856        H873   0.990       .  S
O857        H877   0.990   1_556  S
O857        H886   0.990       .  S
O858        C859   1.278   1_556  A
C859       C2472   1.463       .  S
O860        H879   0.990       .  S
O860        H883   0.990       .  S
O861        H875   0.990       .  S
O861        H882   0.990       .  S
O862        C866   1.285   1_565  A
O863        C866   1.290       .  A
O864        H874   0.990       .  S
O865        H878   0.990       .  S
C866       C1880   1.488       .  S
Zr889       O890   2.442       .  S
Zr889       O891   2.423       .  S
Zr889       O892   2.437       .  S
Zr889       O895   2.403       .  S
Zr889       O897   2.375       .  S
Zr889       O898   2.381       .  S
Zr889       O899   2.398   1_545  S
Zr889       O900   2.404       .  S
O890        H946   0.991       .  S
O890        H954   0.990       .  S
O891        C911   1.282       .  A
O892        C913   1.284       .  A
O893       Zr903   2.464       .  S
O893        C912   1.289       .  A
O894       Zr902   2.484   1_545  S
O894        C913   1.293       .  A
O895        C912   1.279       .  A
O896       Zr904   2.427       .  S
O896        C911   1.281       .  A
O897       Zr902   2.402   1_545  S
O897       Zr904   2.387       .  S
O898       Zr903   2.402       .  S
O898       Zr904   2.369       .  S
O898        H933   0.967       .  S
O899       Zr902   2.410       .  S
O899       Zr919   2.390       .  S
O899        H936   0.965       .  S
O900       Zr903   2.407       .  S
O900       Zr919   2.394   1_545  S
Zr901       O926   2.441       .  S
Zr901       O920   2.428       .  S
Zr901       O928   2.414       .  S
Zr901       O916   2.407       .  S
Zr901       O907   2.392   1_565  S
Zr901       O908   2.404   1_565  S
Zr901       O909   2.376       .  S
Zr901       O910   2.379       .  S
Zr902       O921   2.436       .  S
Zr902       O914   2.435   1_565  S
Zr902       O915   2.470       .  S
Zr902       O908   2.412   1_565  S
Zr902       O909   2.402       .  S
Zr903       O905   2.434       .  S
Zr903       O927   2.436       .  S
Zr903       O929   2.489       .  S
Zr903       O907   2.394       .  S
Zr903       O910   2.401   1_545  S
Zr904       O930   2.437       .  S
Zr904       O931   2.435       .  S
Zr904       O906   2.437       .  S
Zr904       O907   2.395       .  S
Zr904       O908   2.398       .  S
O905        H942   0.990       .  S
O906        H937   0.990       .  S
O906        H951   0.990       .  S
O908        H934   0.965       .  S
O909       Zr919   2.376       .  S
O910       Zr919   2.382       .  S
O910        H935   0.966       .  S
C911       C1512   1.469       .  S
C912       C2171   1.467       .  S
C913       C1867   1.492       .  S
O914        H950   0.990       .  S
O915        C917   1.290       .  A
O916        C917   1.279       .  A
C917       C2024   1.479       .  S
O918       Zr919   2.435       .  S
O918        H947   0.990       .  S
Zr919       O922   2.434       .  S
Zr919       O923   2.439       .  S
Zr919       O924   2.414       .  S
O920        C925   1.281       .  A
O921        H938   0.990       .  S
O921        H953   0.990       .  S
O922        H939   0.990       .  S
O923        H943   0.990       .  S
O923        H952   0.989       .  S
O924        C925   1.279       .  A
C925       C1499   1.466       .  S
O926        H945   0.990       .  S
O926        H949   0.991       .  S
O927        H941   0.990       .  S
O927        H948   0.990       .  S
O928        C932   1.282   1_565  A
O929        C932   1.293       .  A
O930        H940   0.990       .  S
O931        H944   0.990       .  S
C932       C2411   1.494   1_545  S
C955        C956   1.528       .  S
C955        C961   1.532       .  S
C955        C959   1.532       .  S
C955       C1515   1.506       .  S
C956        H963   1.084       .  S
C956        C957   1.362       .  D
C957        C958   1.540       .  S
C957       C1915   1.477       .  S
C958        C962   1.532       .  S
C958        C960   1.537       .  S
C958        H964   1.111       .  S
C959        H965   1.086       .  S
C959        C960   1.370       .  D
C960       C1480   1.471       .  S
C961        H966   1.086       .  S
C961        C962   1.366       .  D
C962       C1595   1.460       .  S
Zr967       O968   2.444       .  S
Zr967       O969   2.428       .  S
Zr967       O970   2.454       .  S
Zr967       O973   2.412       .  S
Zr967       O975   2.374       .  S
Zr967       O976   2.391   1_554  S
Zr967       O977   2.402       .  S
Zr967       O978   2.403       .  S
O968       H1024   0.991       .  S
O968       H1032   0.990       .  S
O969        C989   1.280   1_554  A
O970        C991   1.285       .  A
O971       Zr981   2.444       .  S
O971        C990   1.286   1_556  A
O972       Zr980   2.474       .  S
O972        C991   1.291       .  A
O973        C990   1.281       .  A
O974       Zr982   2.422       .  S
O974        C989   1.281       .  A
O975       Zr980   2.409       .  S
O975       Zr982   2.381   1_554  S
O976       Zr981   2.414       .  S
O976       Zr982   2.373       .  S
O976       H1011   0.965       .  S
O977       Zr980   2.407       .  S
O977       Zr997   2.396   1_655  S
O977       H1014   0.966       .  S
O978       Zr981   2.407   1_554  S
O978       Zr997   2.383   1_655  S
Zr979      O1004   2.444       .  S
Zr979       O998   2.451       .  S
Zr979      O1006   2.423       .  S
Zr979       O994   2.408   1_455  S
Zr979       O985   2.396   1_455  S
Zr979       O986   2.409   1_455  S
Zr979       O987   2.380   1_556  S
Zr979       O988   2.375       .  S
Zr980       O999   2.436       .  S
Zr980       O992   2.435       .  S
Zr980       O993   2.474   1_554  S
Zr980       O986   2.414   1_554  S
Zr980       O987   2.401   1_655  S
Zr981       O983   2.435   1_655  S
Zr981      O1005   2.439       .  S
Zr981      O1007   2.494   1_655  S
Zr981       O985   2.393       .  S
Zr981       O988   2.395   1_655  S
Zr982      O1008   2.435       .  S
Zr982      O1009   2.434       .  S
Zr982       O984   2.437       .  S
Zr982       O985   2.399       .  S
Zr982       O986   2.401       .  S
O983       H1020   0.990       .  S
O984       H1015   0.990       .  S
O984       H1029   0.990       .  S
O986       H1012   0.965       .  S
O987       Zr997   2.374       .  S
O988       Zr997   2.388   1_556  S
O988       H1013   0.966       .  S
C989       C2331   1.470       .  S
C990       C1688   1.462       .  S
C991       C1963   1.493       .  S
O992       H1028   0.990       .  S
O993        C995   1.291       .  A
O994        C995   1.278       .  A
C995       C1464   1.482       .  S
O996       Zr997   2.434       .  S
O996       H1025   0.990       .  S
Zr997      O1000   2.437       .  S
Zr997      O1001   2.437       .  S
Zr997      O1002   2.411       .  S
O998       C1003   1.286       .  A
O999       H1016   0.990       .  S
O999       H1031   0.990       .  S
O1000      H1017   0.990       .  S
O1001      H1021   0.990       .  S
O1001      H1030   0.990       .  S
O1002      C1003   1.279   1_554  A
C1003      C2267   1.473       .  S
O1004      H1023   0.991   1_455  S
O1004      H1027   0.991       .  S
O1005      H1019   0.990       .  S
O1005      H1026   0.990       .  S
O1006      C1010   1.282       .  A
O1007      C1010   1.295       .  A
O1008      H1018   0.990       .  S
O1009      H1022   0.990       .  S
C1010      C2235   1.497       .  S
Zr1033     O1034   2.444       .  S
Zr1033     O1035   2.431       .  S
Zr1033     O1036   2.430       .  S
Zr1033     O1039   2.403       .  S
Zr1033     O1041   2.376       .  S
Zr1033     O1042   2.386       .  S
Zr1033     O1043   2.406       .  S
Zr1033     O1044   2.392       .  S
O1034      H1090   0.990       .  S
O1034      H1098   0.991       .  S
O1035      C1055   1.282       .  A
O1036      C1057   1.281       .  A
O1037     Zr1047   2.467   1_556  S
O1037      C1056   1.290       .  A
O1038     Zr1046   2.471       .  S
O1038      C1057   1.291       .  A
O1039      C1056   1.279       .  A
O1040     Zr1048   2.411   1_556  S
O1040      C1055   1.278       .  A
O1041     Zr1046   2.406       .  S
O1041     Zr1048   2.382   1_556  S
O1042     Zr1047   2.399   1_556  S
O1042     Zr1048   2.389   1_556  S
O1042      H1077   0.967   1_556  S
O1043     Zr1046   2.405       .  S
O1043     Zr1063   2.396       .  S
O1043      H1080   0.965       .  S
O1044     Zr1047   2.395   1_556  S
O1044     Zr1063   2.383       .  S
Zr1045     O1070   2.444       .  S
Zr1045     O1064   2.429       .  S
Zr1045     O1072   2.422       .  S
Zr1045     O1060   2.407       .  S
Zr1045     O1051   2.387       .  S
Zr1045     O1052   2.406   1_554  S
Zr1045     O1053   2.382   1_554  S
Zr1045     O1054   2.377   1_554  S
Zr1046     O1065   2.437       .  S
Zr1046     O1058   2.435       .  S
Zr1046     O1059   2.458       .  S
Zr1046     O1052   2.411       .  S
Zr1046     O1053   2.404       .  S
Zr1047     O1049   2.436       .  S
Zr1047     O1071   2.436       .  S
Zr1047     O1073   2.475       .  S
Zr1047     O1051   2.395       .  S
Zr1047     O1054   2.394   1_554  S
Zr1048     O1074   2.434       .  S
Zr1048     O1075   2.437       .  S
Zr1048     O1050   2.439       .  S
Zr1048     O1051   2.394       .  S
Zr1048     O1052   2.386   1_554  S
O1049      H1086   0.990       .  S
O1050      H1081   0.990       .  S
O1050      H1095   0.990   1_554  S
O1052      H1078   0.965   1_556  S
O1053     Zr1063   2.376       .  S
O1054     Zr1063   2.387       .  S
O1054      H1079   0.966   1_556  S
C1055      C2347   1.460       .  S
C1056      C1819   1.474       .  S
C1057      C2632   1.484       .  S
O1058      H1094   0.990       .  S
O1059      C1061   1.288       .  A
O1060      C1061   1.279   1_554  A
C1061      C2443   1.472       .  S
O1062     Zr1063   2.434       .  S
O1062      H1091   0.990       .  S
Zr1063     O1066   2.436       .  S
Zr1063     O1067   2.438       .  S
Zr1063     O1068   2.407       .  S
O1064      C1069   1.282   1_554  A
O1065      H1082   0.990       .  S
O1065      H1097   0.990       .  S
O1066      H1083   0.990       .  S
O1067      H1087   0.990       .  S
O1067      H1096   0.990       .  S
O1068      C1069   1.277       .  A
C1069      C2283   1.458       .  S
O1070      H1089   0.991       .  S
O1070      H1093   0.990       .  S
O1071      H1085   0.990       .  S
O1071      H1092   0.990       .  S
O1072      C1076   1.281       .  A
O1073      C1076   1.292       .  A
O1074      H1084   0.990       .  S
O1075      H1088   0.990       .  S
C1076      C1451   1.485       .  S
Zr1099     O1100   2.439       .  S
Zr1099     O1101   2.440       .  S
Zr1099     O1102   2.426       .  S
Zr1099     O1105   2.415       .  S
Zr1099     O1107   2.377   1_655  S
Zr1099     O1108   2.379       .  S
Zr1099     O1109   2.408   1_655  S
Zr1099     O1110   2.403       .  S
O1100      H1156   0.990       .  S
O1100      H1164   0.990       .  S
O1101      C1121   1.285       .  A
O1102      C1123   1.283   1_655  A
O1103     Zr1113   2.446       .  S
O1103      C1122   1.285       .  A
O1104     Zr1112   2.455       .  S
O1104      C1123   1.288       .  A
O1105      C1122   1.282       .  A
O1106     Zr1114   2.441   1_655  S
O1106      C1121   1.285       .  A
O1107     Zr1112   2.394       .  S
O1107     Zr1114   2.380       .  S
O1108     Zr1113   2.399       .  S
O1108     Zr1114   2.371   1_655  S
O1108      H1143   0.965       .  S
O1109     Zr1112   2.397       .  S
O1109     Zr1129   2.402       .  S
O1109      H1146   0.965       .  S
O1110     Zr1113   2.393       .  S
O1110     Zr1129   2.404   1_655  S
Zr1111     O1136   2.441       .  S
Zr1111     O1130   2.461       .  S
Zr1111     O1138   2.436       .  S
Zr1111     O1126   2.419       .  S
Zr1111     O1117   2.403       .  S
Zr1111     O1118   2.415       .  S
Zr1111     O1119   2.380       .  S
Zr1111     O1120   2.377   1_455  S
Zr1112     O1131   2.434       .  S
Zr1112     O1124   2.435       .  S
Zr1112     O1125   2.442       .  S
Zr1112     O1118   2.405       .  S
Zr1112     O1119   2.405       .  S
Zr1113     O1115   2.435       .  S
Zr1113     O1137   2.440       .  S
Zr1113     O1139   2.451       .  S
Zr1113     O1117   2.394   1_655  S
Zr1113     O1120   2.401       .  S
Zr1114     O1140   2.437   1_455  S
Zr1114     O1141   2.435       .  S
Zr1114     O1116   2.438       .  S
Zr1114     O1117   2.399       .  S
Zr1114     O1118   2.397       .  S
O1115      H1152   0.990       .  S
O1116      H1147   0.990       .  S
O1116      H1161   0.990       .  S
O1118      H1144   0.965       .  S
O1119     Zr1129   2.376       .  S
O1120     Zr1129   2.380   1_655  S
O1120      H1145   0.965       .  S
C1121      C1947   1.482       .  S
C1122      C2603   1.467       .  S
C1123      C2107   1.476       .  S
O1124      H1160   0.989       .  S
O1125      C1127   1.285       .  A
O1126      C1127   1.282       .  A
C1127      C1432   1.463       .  S
O1128     Zr1129   2.441   1_655  S
O1128      H1157   0.990       .  S
Zr1129     O1132   2.437       .  S
Zr1129     O1133   2.438   1_455  S
Zr1129     O1134   2.446       .  S
O1130      C1135   1.288       .  A
O1131      H1148   0.990       .  S
O1131      H1163   0.990       .  S
O1132      H1149   0.990       .  S
O1133      H1153   0.989       .  S
O1133      H1162   0.991       .  S
O1134      C1135   1.287       .  A
C1135      C2219   1.494       .  S
O1136      H1155   0.990       .  S
O1136      H1159   0.990       .  S
O1137      H1151   0.990       .  S
O1137      H1158   0.990       .  S
O1138      C1142   1.284   1_455  A
O1139      C1142   1.287       .  A
O1140      H1150   0.990       .  S
O1141      H1154   0.990       .  S
C1142      C1739   1.482       .  S
C1165      C1166   1.526       .  S
C1165      C1171   1.529       .  S
C1165      C1169   1.521       .  S
C1165      C1784   1.496       .  S
C1166      H1173   1.086       .  S
C1166      C1167   1.369       .  D
C1167      C1168   1.548       .  S
C1167      C1435   1.481       .  S
C1168      C1172   1.549       .  S
C1168      C1170   1.554       .  S
C1168      H1174   1.110       .  S
C1169      H1175   1.087       .  S
C1169      C1170   1.360       .  D
C1170      C1579   1.476       .  S
C1171      H1176   1.087       .  S
C1171      C1172   1.364       .  D
C1172      C1416   1.481       .  S
Zr1177     O1178   2.444       .  S
Zr1177     O1179   2.451       .  S
Zr1177     O1180   2.437       .  S
Zr1177     O1183   2.411       .  S
Zr1177     O1185   2.381       .  S
Zr1177     O1186   2.390       .  S
Zr1177     O1187   2.409       .  S
Zr1177     O1188   2.404       .  S
O1178      H1234   0.991       .  S
O1178      H1242   0.991       .  S
O1179      C1199   1.285       .  A
O1180      C1201   1.282       .  A
O1181     Zr1191   2.457       .  S
O1181      C1200   1.289       .  A
O1182     Zr1190   2.496       .  S
O1182      C1201   1.295       .  A
O1183      C1200   1.280       .  A
O1184     Zr1192   2.397       .  S
O1184      C1199   1.276       .  A
O1185     Zr1190   2.408       .  S
O1185     Zr1192   2.390       .  S
O1186     Zr1191   2.406       .  S
O1186     Zr1192   2.375       .  S
O1186      H1221   0.966       .  S
O1187     Zr1190   2.406       .  S
O1187     Zr1207   2.398       .  S
O1187      H1224   0.965       .  S
O1188     Zr1191   2.408       .  S
O1188     Zr1207   2.390       .  S
Zr1189     O1214   2.441       .  S
Zr1189     O1208   2.415       .  S
Zr1189     O1216   2.419       .  S
Zr1189     O1204   2.390       .  S
Zr1189     O1195   2.391       .  S
Zr1189     O1196   2.400       .  S
Zr1189     O1197   2.387       .  S
Zr1189     O1198   2.371       .  S
Zr1190     O1209   2.440       .  S
Zr1190     O1202   2.433       .  S
Zr1190     O1203   2.481       .  S
Zr1190     O1196   2.405       .  S
Zr1190     O1197   2.403       .  S
Zr1191     O1193   2.435       .  S
Zr1191     O1215   2.439       .  S
Zr1191     O1217   2.501       .  S
Zr1191     O1195   2.395       .  S
Zr1191     O1198   2.392       .  S
Zr1192     O1218   2.433       .  S
Zr1192     O1219   2.434       .  S
Zr1192     O1194   2.439       .  S
Zr1192     O1195   2.395       .  S
Zr1192     O1196   2.379       .  S
O1193      H1230   0.990       .  S
O1194      H1225   0.990       .  S
O1194      H1239   0.990       .  S
O1196      H1222   0.965       .  S
O1197     Zr1207   2.374       .  S
O1198     Zr1207   2.381       .  S
O1198      H1223   0.966       .  S
C1199      C1483   1.465       .  S
C1200      C1419   1.472       .  S
C1201      C1400   1.499       .  S
O1202      H1238   0.990       .  S
O1203      C1205   1.294       .  A
O1204      C1205   1.277       .  A
C1205      C2587   1.473       .  S
O1206     Zr1207   2.435       .  S
O1206      H1235   0.990       .  S
Zr1207     O1210   2.435       .  S
Zr1207     O1211   2.439       .  S
Zr1207     O1212   2.427       .  S
O1208      C1213   1.279       .  A
O1209      H1226   0.990       .  S
O1209      H1241   0.990       .  S
O1210      H1227   0.990       .  S
O1211      H1231   0.990       .  S
O1211      H1240   0.990       .  S
O1212      C1213   1.283       .  A
C1213      C1387   1.463       .  S
O1214      H1233   0.991       .  S
O1214      H1237   0.990       .  S
O1215      H1229   0.990       .  S
O1215      H1236   0.990       .  S
O1216      C1220   1.282       .  A
O1217      C1220   1.295       .  A
O1218      H1228   0.990       .  S
O1219      H1232   0.990       .  S
C1220      C2651   1.500       .  S
C1243      C1244   1.532       .  S
C1243      C1249   1.528       .  S
C1243      C1247   1.538       .  S
C1243      C1448   1.528       .  S
C1244      H1251   1.086       .  S
C1244      C1245   1.372       .  D
C1245      C1246   1.568       .  S
C1245      C2059   1.509       .  S
C1246      C1250   1.561       .  S
C1246      C1248   1.563       .  S
C1246      H1252   1.110       .  S
C1247      H1253   1.086       .  S
C1247      C1248   1.374       .  D
C1248      C1403   1.503       .  S
C1249      H1254   1.087       .  S
C1249      C1250   1.359       .  D
C1250      C1560   1.494       .  S
C1255      C1256   1.539       .  S
C1255      C1261   1.524   1_655  S
C1255      C1259   1.520   1_655  S
C1255      C1640   1.512       .  S
C1256      H1263   1.081       .  S
C1256      C1257   1.373       .  D
C1257      C1258   1.548   1_655  S
C1257      C2872   1.496       .  S
C1258      C1262   1.562       .  S
C1258      C1260   1.555       .  S
C1258      H1264   1.110       .  S
C1259      H1265   1.085       .  S
C1259      C1260   1.364       .  D
C1260      C1467   1.490   1_455  S
C1261      H1266   1.085       .  S
C1261      C1262   1.367       .  D
C1262      C1371   1.496       .  S
Zr1267     O1268   2.439       .  S
Zr1267     O1269   2.442       .  S
Zr1267     O1270   2.416       .  S
Zr1267     O1273   2.415       .  S
Zr1267     O1275   2.377       .  S
Zr1267     O1276   2.379       .  S
Zr1267     O1277   2.403       .  S
Zr1267     O1278   2.402       .  S
O1268      H1324   0.990       .  S
O1268      H1332   0.990       .  S
O1269      C1289   1.285       .  A
O1270      C1291   1.281       .  A
O1271     Zr1281   2.483       .  S
O1271      C1290   1.293       .  A
O1272     Zr1280   2.458       .  S
O1272      C1291   1.289       .  A
O1273      C1290   1.283       .  A
O1274     Zr1282   2.421       .  S
O1274      C1289   1.282       .  A
O1275     Zr1280   2.402       .  S
O1275     Zr1282   2.378       .  S
O1276     Zr1281   2.388       .  S
O1276     Zr1282   2.370       .  S
O1276      H1311   0.966       .  S
O1277     Zr1280   2.402       .  S
O1277     Zr1297   2.397       .  S
O1277      H1314   0.965       .  S
O1278     Zr1281   2.403       .  S
O1278     Zr1297   2.405       .  S
Zr1279     O1304   2.441       .  S
Zr1279     O1298   2.432       .  S
Zr1279     O1306   2.399       .  S
Zr1279     O1294   2.407       .  S
Zr1279     O1285   2.402       .  S
Zr1279     O1286   2.398       .  S
Zr1279     O1287   2.370       .  S
Zr1279     O1288   2.378       .  S
Zr1280     O1299   2.436       .  S
Zr1280     O1292   2.434       .  S
Zr1280     O1293   2.471       .  S
Zr1280     O1286   2.401       .  S
Zr1280     O1287   2.397       .  S
Zr1281     O1283   2.436       .  S
Zr1281     O1305   2.438       .  S
Zr1281     O1307   2.478       .  S
Zr1281     O1285   2.395       .  S
Zr1281     O1288   2.407       .  S
Zr1282     O1308   2.437       .  S
Zr1282     O1309   2.437       .  S
Zr1282     O1284   2.435       .  S
Zr1282     O1285   2.393       .  S
Zr1282     O1286   2.391       .  S
O1283      H1320   0.990       .  S
O1284      H1315   0.990       .  S
O1284      H1329   0.990       .  S
O1286      H1312   0.965       .  S
O1287     Zr1297   2.373       .  S
O1288     Zr1297   2.379       .  S
O1288      H1313   0.966       .  S
C1289      C2251   1.471       .  S
C1290      C1368   1.487       .  S
C1291      C2184   1.472       .  S
O1292      H1328   0.990       .  S
O1293      C1295   1.290       .  A
O1294      C1295   1.282       .  A
C1295      C1352   1.481       .  S
O1296     Zr1297   2.435       .  S
O1296      H1325   0.990       .  S
Zr1297     O1300   2.436       .  S
Zr1297     O1301   2.437       .  S
Zr1297     O1302   2.432       .  S
O1298      C1303   1.282       .  A
O1299      H1316   0.990       .  S
O1299      H1331   0.990       .  S
O1300      H1317   0.990       .  S
O1301      H1321   0.990       .  S
O1301      H1330   0.990       .  S
O1302      C1303   1.283       .  A
C1303      C1992   1.475       .  S
O1304      H1323   0.990       .  S
O1304      H1327   0.990       .  S
O1305      H1319   0.990       .  S
O1305      H1326   0.990       .  S
O1306      C1310   1.278       .  A
O1307      C1310   1.292       .  A
O1308      H1318   0.990       .  S
O1309      H1322   0.990       .  S
C1310      C2363   1.481       .  S
C1333      C1334   1.524       .  S
C1333      C1339   1.531       .  S
C1333      C1337   1.535       .  S
C1333      C1496   1.510       .  S
C1334      H1341   1.087       .  S
C1334      C1335   1.361       .  D
C1335      C1336   1.547       .  S
C1335      C2824   1.477       .  S
C1336      C1340   1.545       .  S
C1336      C1338   1.540       .  S
C1336      H1342   1.110       .  S
C1337      H1343   1.086       .  S
C1337      C1338   1.371       .  D
C1338      C1384   1.472       .  S
C1339      H1344   1.084       .  S
C1339      C1340   1.364       .  D
C1340      C1355   1.476       .  S
C1345      C1350   1.379       .  A
C1345      C1346   1.416       .  A
C1345      O1351   1.332       .  A
C1346      C1347   1.417       .  A
C1346      H1357   1.082       .  S
C1347      C1356   1.375       .  A
C1347      C1348   1.381       .  A
C1348      C1349   1.393       .  A
C1348      O1354   1.311       .  A
C1349      C1350   1.393       .  A
C1349      H1358   1.083       .  S
C1350      C1353   1.347       .  A
O1351      C1352   1.338       .  A
C1352      C1353   1.388       .  A
C1353      H1359   1.083       .  S
O1354      C1355   1.326       .  A
C1355      C1356   1.398       .  A
C1356      H1360   1.082       .  S
C1361      C1366   1.380       .  A
C1361      C1362   1.407       .  A
C1361      O1367   1.327       .  A
C1362      C1363   1.409       .  A
C1362      H1373   1.082       .  S
C1363      C1372   1.361       .  A
C1363      C1364   1.379       .  A
C1364      C1365   1.406       .  A
C1364      O1370   1.327       .  A
C1365      C1366   1.408       .  A
C1365      H1374   1.082       .  S
C1366      C1369   1.362       .  A
O1367      C1368   1.334       .  A
C1368      C1369   1.396       .  A
C1369      H1375   1.083       .  S
O1370      C1371   1.333       .  A
C1371      C1372   1.399       .  A
C1372      H1376   1.082       .  S
C1377      C1382   1.381       .  A
C1377      C1378   1.397       .  A
C1377      O1383   1.315       .  A
C1378      C1379   1.396       .  A
C1378      H1389   1.082       .  S
C1379      C1388   1.354       .  A
C1379      C1380   1.381       .  A
C1380      C1381   1.405       .  A
C1380      O1386   1.320       .  A
C1381      C1382   1.405       .  A
C1381      H1390   1.082       .  S
C1382      C1385   1.363       .  A
O1383      C1384   1.328       .  A
C1384      C1385   1.393       .  A
C1385      H1391   1.082       .  S
O1386      C1387   1.332       .  A
C1387      C1388   1.386       .  A
C1388      H1392   1.083       .  S
C1393      C1398   1.378       .  A
C1393      C1394   1.412       .  A
C1393      O1399   1.324       .  A
C1394      C1395   1.409       .  A
C1394      H1405   1.082       .  S
C1395      C1404   1.374       .  A
C1395      C1396   1.378       .  A
C1396      C1397   1.415       .  A
C1396      O1402   1.327       .  A
C1397      C1398   1.413       .  A
C1397      H1406   1.082       .  S
C1398      C1401   1.379       .  A
O1399      C1400   1.337       .  A
C1400      C1401   1.398       .  A
C1401      H1407   1.082       .  S
O1402      C1403   1.338       .  A
C1403      C1404   1.396       .  A
C1404      H1408   1.082       .  S
C1409      C1414   1.379       .  A
C1409      C1410   1.405       .  A
C1409      O1415   1.315       .  A
C1410      C1411   1.402       .  A
C1410      H1421   1.082       .  S
C1411      C1420   1.367       .  A
C1411      C1412   1.380       .  A
C1412      C1413   1.406       .  A
C1412      O1418   1.316       .  A
C1413      C1414   1.402       .  A
C1413      H1422   1.082       .  S
C1414      C1417   1.367       .  A
O1415      C1416   1.333       .  A
C1416      C1417   1.392       .  A
C1417      H1423   1.082       .  S
O1418      C1419   1.332       .  A
C1419      C1420   1.391       .  A
C1420      H1424   1.082       .  S
C1425      C1430   1.381       .  A
C1425      C1426   1.395       .  A
C1425      O1431   1.312       .  A
C1426      C1427   1.395       .  A
C1426      H1437   1.083       .  S
C1427      C1436   1.350       .  A
C1427      C1428   1.380       .  A
C1428      C1429   1.410       .  A
C1428      O1434   1.326       .  A
C1429      C1430   1.410       .  A
C1429      H1438   1.082       .  S
C1430      C1433   1.369       .  A
O1431      C1432   1.326       .  A
C1432      C1433   1.395       .  A
C1433      H1439   1.083       .  S
O1434      C1435   1.334       .  A
C1435      C1436   1.389       .  A
C1436      H1440   1.082       .  S
C1441      C1446   1.378       .  A
C1441      C1442   1.407       .  A
C1441      O1447   1.319       .  A
C1442      C1443   1.404       .  A
C1442      H1453   1.082       .  S
C1443      C1452   1.370       .  A
C1443      C1444   1.379       .  A
C1444      C1445   1.411       .  A
C1444      O1450   1.322       .  A
C1445      C1446   1.409       .  A
C1445      H1454   1.082       .  S
C1446      C1449   1.373       .  A
O1447      C1448   1.335       .  A
C1448      C1449   1.397       .  A
C1449      H1455   1.082       .  S
O1450      C1451   1.336       .  A
C1451      C1452   1.392       .  A
C1452      H1456   1.082       .  S
C1457      C1462   1.380       .  A
C1457      C1458   1.404       .  A
C1457      O1463   1.327       .  A
C1458      C1459   1.407       .  A
C1458      H1469   1.082       .  S
C1459      C1468   1.356       .  A
C1459      C1460   1.380       .  A
C1460      C1461   1.403   1_655  A
C1460      O1466   1.326   1_655  A
C1461      C1462   1.406   1_455  A
C1461      H1470   1.082       .  S
C1462      C1465   1.355       .  A
O1463      C1464   1.332       .  A
C1464      C1465   1.396       .  A
C1465      H1471   1.082   1_655  S
O1466      C1467   1.332   1_455  A
C1467      C1468   1.398       .  A
C1468      H1472   1.082       .  S
C1473      C1478   1.380       .  A
C1473      C1474   1.407       .  A
C1473      O1479   1.320       .  A
C1474      C1475   1.405       .  A
C1474      H1485   1.082       .  S
C1475      C1484   1.369       .  A
C1475      C1476   1.381       .  A
C1476      C1477   1.398       .  A
C1476      O1482   1.312       .  A
C1477      C1478   1.396       .  A
C1477      H1486   1.082       .  S
C1478      C1481   1.357       .  A
O1479      C1480   1.332       .  A
C1480      C1481   1.388       .  A
C1481      H1487   1.082       .  S
O1482      C1483   1.328       .  A
C1483      C1484   1.393       .  A
C1484      H1488   1.082       .  S
C1489      C1494   1.379       .  A
C1489      C1490   1.402       .  A
C1489      O1495   1.317       .  A
C1490      C1491   1.402       .  A
C1490      H1501   1.082       .  S
C1491      C1500   1.359       .  A
C1491      C1492   1.381       .  A
C1492      C1493   1.401       .  A
C1492      O1498   1.318       .  A
C1493      C1494   1.401       .  A
C1493      H1502   1.082       .  S
C1494      C1497   1.358       .  A
O1495      C1496   1.332       .  A
C1496      C1497   1.396       .  A
C1497      H1503   1.080       .  S
O1498      C1499   1.329       .  A
C1499      C1500   1.391       .  A
C1500      H1504   1.083       .  S
C1505      C1510   1.380       .  A
C1505      C1506   1.408       .  A
C1505      O1511   1.321       .  A
C1506      C1507   1.406       .  A
C1506      H1517   1.082       .  S
C1507      C1516   1.368       .  A
C1507      C1508   1.380       .  A
C1508      C1509   1.396       .  A
C1508      O1514   1.310       .  A
C1509      C1510   1.395       .  A
C1509      H1518   1.083       .  S
C1510      C1513   1.354       .  A
O1511      C1512   1.333       .  A
C1512      C1513   1.388       .  A
C1513      H1519   1.083       .  S
O1514      C1515   1.328       .  A
C1515      C1516   1.395       .  A
C1516      H1520   1.082       .  S
C1521      C1526   1.381       .  A
C1521      C1522   1.399       .  A
C1521      O1527   1.313       .  A
C1522      C1523   1.397       .  A
C1522      H1533   1.082       .  S
C1523      C1532   1.358       .  A
C1523      C1524   1.380       .  A
C1524      C1525   1.405   1_554  A
C1524      O1530   1.318       .  A
C1525      C1526   1.404   1_556  A
C1525      H1534   1.082       .  S
C1526      C1529   1.365   1_554  A
O1527      C1528   1.328       .  A
C1528      C1529   1.392   1_554  A
C1529      H1535   1.082       .  S
O1530      C1531   1.331       .  A
C1531      C1532   1.389       .  A
C1532      H1536   1.082       .  S
C1537      C1542   1.379   1_545  A
C1537      C1538   1.413       .  A
C1537      O1543   1.329       .  A
C1538      C1539   1.413       .  A
C1538      H1549   1.082       .  S
C1539      C1548   1.374       .  A
C1539      C1540   1.378   1_545  A
C1540      C1541   1.406       .  A
C1540      O1546   1.320       .  A
C1541      C1542   1.405       .  A
C1541      H1550   1.082       .  S
C1542      C1545   1.362       .  A
O1543      C1544   1.337       .  A
C1544      C1545   1.394   1_545  A
C1545      H1551   1.083       .  S
O1546      C1547   1.335   1_565  A
C1547      C1548   1.398       .  A
C1548      H1552   1.082       .  S
C1553      C1558   1.378       .  A
C1553      C1554   1.408       .  A
C1553      O1559   1.318       .  A
C1554      C1555   1.404       .  A
C1554      H1565   1.082       .  S
C1555      C1564   1.368       .  A
C1555      C1556   1.378       .  A
C1556      C1557   1.413       .  A
C1556      O1562   1.325       .  A
C1557      C1558   1.411       .  A
C1557      H1566   1.082       .  S
C1558      C1561   1.377       .  A
O1559      C1560   1.335       .  A
C1560      C1561   1.395       .  A
C1561      H1567   1.082       .  S
O1562      C1563   1.337       .  A
C1563      C1564   1.393       .  A
C1564      H1568   1.082       .  S
C1569      C1574   1.379       .  A
C1569      C1570   1.402       .  A
C1569      O1575   1.310       .  A
C1570      C1571   1.397       .  A
C1570      H1581   1.082       .  S
C1571      C1580   1.365       .  A
C1571      C1572   1.379       .  A
C1572      C1573   1.409       .  A
C1572      O1578   1.316       .  A
C1573      C1574   1.405       .  A
C1573      H1582   1.082       .  S
C1574      C1577   1.373       .  A
O1575      C1576   1.331       .  A
C1576      C1577   1.393       .  A
C1577      H1583   1.082       .  S
O1578      C1579   1.334       .  A
C1579      C1580   1.388       .  A
C1580      H1584   1.082       .  S
C1585      C1590   1.381       .  A
C1585      C1586   1.396       .  A
C1585      O1591   1.308       .  A
C1586      C1587   1.393       .  A
C1586      H1597   1.083       .  S
C1587      C1596   1.355       .  A
C1587      C1588   1.382       .  A
C1588      C1589   1.405       .  A
C1588      O1594   1.317       .  A
C1589      C1590   1.403       .  A
C1589      H1598   1.082       .  S
C1590      C1593   1.367       .  A
O1591      C1592   1.327       .  A
C1592      C1593   1.391       .  A
C1593      H1599   1.082       .  S
O1594      C1595   1.330       .  A
C1595      C1596   1.384       .  A
C1596      H1600   1.083       .  S
C1601      C1606   1.378       .  A
C1601      C1602   1.410       .  A
C1601      O1607   1.320       .  A
C1602      C1603   1.406       .  A
C1602      H1613   1.082       .  S
C1603      C1612   1.372       .  A
C1603      C1604   1.378       .  A
C1604      C1605   1.416       .  A
C1604      O1610   1.326       .  A
C1605      C1606   1.413       .  A
C1605      H1614   1.082       .  S
C1606      C1609   1.380       .  A
O1607      C1608   1.336       .  A
C1608      C1609   1.398       .  A
C1609      H1615   1.082       .  S
O1610      C1611   1.338       .  A
C1611      C1612   1.394       .  A
C1612      H1616   1.082       .  S
C1617      C1622   1.381       .  A
C1617      C1618   1.407       .  A
C1617      O1623   1.321       .  A
C1618      C1619   1.406       .  A
C1618      H1629   1.082       .  S
C1619      C1628   1.366       .  A
C1619      C1620   1.380       .  A
C1620      C1621   1.393       .  A
C1620      O1626   1.310       .  A
C1621      C1622   1.393       .  A
C1621      H1630   1.083       .  S
C1622      C1625   1.349       .  A
O1623      C1624   1.332       .  A
C1624      C1625   1.386       .  A
C1625      H1631   1.083       .  S
O1626      C1627   1.326       .  A
C1627      C1628   1.395       .  A
C1628      H1632   1.082       .  S
C1633      C1638   1.378   1_455  A
C1633      C1634   1.407       .  A
C1633      O1639   1.319       .  A
C1634      C1635   1.406       .  A
C1634      H1645   1.082       .  S
C1635      C1644   1.369   1_556  A
C1635      C1636   1.380   1_455  A
C1636      C1637   1.400       .  A
C1636      O1642   1.312   1_556  A
C1637      C1638   1.397       .  A
C1637      H1646   1.083       .  S
C1638      C1641   1.359       .  A
O1639      C1640   1.334   1_455  A
C1640      C1641   1.393       .  A
C1641      H1647   1.081       .  S
O1642      C1643   1.329   1_655  A
C1643      C1644   1.393       .  A
C1644      H1648   1.082       .  S
C1649      C1654   1.380       .  A
C1649      C1650   1.410   1_554  A
C1649      O1655   1.323       .  A
C1650      C1651   1.408   1_556  A
C1650      H1661   1.082       .  S
C1651      C1660   1.370       .  A
C1651      C1652   1.379       .  A
C1652      C1653   1.398       .  A
C1652      O1658   1.312       .  A
C1653      C1654   1.396       .  A
C1653      H1662   1.082       .  S
C1654      C1657   1.356       .  A
O1655      C1656   1.335       .  A
C1656      C1657   1.389       .  A
C1657      H1663   1.083       .  S
O1658      C1659   1.329       .  A
C1659      C1660   1.395       .  A
C1660      H1664   1.082   1_554  S
C1665      C1670   1.378   1_565  A
C1665      C1666   1.412       .  A
C1665      O1671   1.326       .  A
C1666      C1667   1.411       .  A
C1666      H1677   1.082       .  S
C1667      C1676   1.373       .  A
C1667      C1668   1.378   1_565  A
C1668      C1669   1.413       .  A
C1668      O1674   1.327       .  A
C1669      C1670   1.412       .  A
C1669      H1678   1.082       .  S
C1670      C1673   1.375       .  A
O1671      C1672   1.336   1_565  A
C1672      C1673   1.398       .  A
C1673      H1679   1.082       .  S
O1674      C1675   1.336   1_545  A
C1675      C1676   1.396       .  A
C1676      H1680   1.082       .  S
C1681      C1686   1.381       .  A
C1681      C1682   1.399       .  A
C1681      O1687   1.311       .  A
C1682      C1683   1.396       .  A
C1682      H1693   1.082       .  S
C1683      C1692   1.359       .  A
C1683      C1684   1.380   1_655  A
C1684      C1685   1.403       .  A
C1684      O1690   1.313       .  A
C1685      C1686   1.400   1_455  A
C1685      H1694   1.082       .  S
C1686      C1689   1.364       .  A
O1687      C1688   1.329       .  A
C1688      C1689   1.391       .  A
C1689      H1695   1.082   1_654  S
O1690      C1691   1.330   1_455  A
C1691      C1692   1.387       .  A
C1692      H1696   1.082       .  S
C1697      C1702   1.379       .  A
C1697      C1698   1.408       .  A
C1697      O1703   1.322       .  A
C1698      C1699   1.407       .  A
C1698      H1709   1.082       .  S
C1699      C1708   1.368       .  A
C1699      C1700   1.381       .  A
C1700      C1701   1.397       .  A
C1700      O1706   1.313       .  A
C1701      C1702   1.396       .  A
C1701      H1710   1.082       .  S
C1702      C1705   1.354       .  A
O1703      C1704   1.334       .  A
C1704      C1705   1.390       .  A
C1705      H1711   1.082       .  S
O1706      C1707   1.328       .  A
C1707      C1708   1.394       .  A
C1708      H1712   1.082       .  S
C1713      C1718   1.381   1_655  A
C1713      C1714   1.402       .  A
C1713      O1719   1.316       .  A
C1714      C1715   1.401       .  A
C1714      H1725   1.082       .  S
C1715      C1724   1.361       .  A
C1715      C1716   1.382   1_655  A
C1716      C1717   1.400       .  A
C1716      O1722   1.316       .  A
C1717      C1718   1.398       .  A
C1717      H1726   1.082       .  S
C1718      C1721   1.357       .  A
O1719      C1720   1.330       .  A
C1720      C1721   1.389   1_655  A
C1721      H1727   1.082       .  S
O1722      C1723   1.327       .  A
C1723      C1724   1.388   1_455  A
C1724      H1728   1.083       .  S
C1729      C1734   1.379   1_455  A
C1729      C1730   1.405       .  A
C1729      O1735   1.320       .  A
C1730      C1731   1.404       .  A
C1730      H1741   1.082       .  S
C1731      C1740   1.362       .  A
C1731      C1732   1.379   1_455  A
C1732      C1733   1.408       .  A
C1732      O1738   1.324       .  A
C1733      C1734   1.408       .  A
C1733      H1742   1.082       .  S
C1734      C1737   1.367       .  A
O1735      C1736   1.333   1_455  A
C1736      C1737   1.395       .  A
C1737      H1743   1.082       .  S
O1738      C1739   1.334       .  A
C1739      C1740   1.394   1_655  A
C1740      H1744   1.083       .  S
C1745      C1750   1.379       .  A
C1745      C1746   1.411       .  A
C1745      O1751   1.323       .  A
C1746      C1747   1.409       .  A
C1746      H1757   1.082       .  S
C1747      C1756   1.371       .  A
C1747      C1748   1.380       .  A
C1748      C1749   1.402       .  A
C1748      O1754   1.316       .  A
C1749      C1750   1.400       .  A
C1749      H1758   1.082   1_655  S
C1750      C1753   1.361       .  A
O1751      C1752   1.335       .  A
C1752      C1753   1.390       .  A
C1753      H1759   1.082   1_655  S
O1754      C1755   1.330       .  A
C1755      C1756   1.394       .  A
C1756      H1760   1.082       .  S
C1761      C1766   1.379       .  A
C1761      C1762   1.414       .  A
C1761      O1767   1.330       .  A
C1762      C1763   1.415       .  A
C1762      H1773   1.082       .  S
C1763      C1772   1.373       .  A
C1763      C1764   1.381       .  A
C1764      C1765   1.393       .  A
C1764      O1770   1.312       .  A
C1765      C1766   1.393       .  A
C1765      H1774   1.083       .  S
C1766      C1769   1.348       .  A
O1767      C1768   1.337       .  A
C1768      C1769   1.388       .  A
C1769      H1775   1.082       .  S
O1770      C1771   1.325       .  A
C1771      C1772   1.397       .  A
C1772      H1776   1.082       .  S
C1777      C1782   1.381       .  A
C1777      C1778   1.400       .  A
C1777      O1783   1.316       .  A
C1778      C1779   1.400       .  A
C1778      H1789   1.082       .  S
C1779      C1788   1.358       .  A
C1779      C1780   1.381       .  A
C1780      C1781   1.398       .  A
C1780      O1786   1.315       .  A
C1781      C1782   1.398       .  A
C1781      H1790   1.082       .  S
C1782      C1785   1.354       .  A
O1783      C1784   1.330       .  A
C1784      C1785   1.389       .  A
C1785      H1791   1.082       .  S
O1786      C1787   1.328       .  A
C1787      C1788   1.390       .  A
C1788      H1792   1.083       .  S
C1793      C1798   1.380       .  A
C1793      C1794   1.407       .  A
C1793      O1799   1.320       .  A
C1794      C1795   1.406       .  A
C1794      H1805   1.082       .  S
C1795      C1804   1.367       .  A
C1795      C1796   1.382       .  A
C1796      C1797   1.392       .  A
C1796      O1802   1.308       .  A
C1797      C1798   1.391       .  A
C1797      H1806   1.083       .  S
C1798      C1801   1.349       .  A
O1799      C1800   1.332       .  A
C1800      C1801   1.386       .  A
C1801      H1807   1.082       .  S
O1802      C1803   1.324       .  A
C1803      C1804   1.393       .  A
C1804      H1808   1.082       .  S
C1809      C1814   1.380       .  A
C1809      C1810   1.401       .  A
C1809      O1815   1.323       .  A
C1810      C1811   1.404       .  A
C1810      H1821   1.082       .  S
C1811      C1820   1.353       .  A
C1811      C1812   1.381       .  A
C1812      C1813   1.402       .  A
C1812      O1818   1.324       .  A
C1813      C1814   1.405       .  A
C1813      H1822   1.082       .  S
C1814      C1817   1.354       .  A
O1815      C1816   1.330       .  A
C1816      C1817   1.397       .  A
C1817      H1823   1.081       .  S
O1818      C1819   1.331       .  A
C1819      C1820   1.394       .  A
C1820      H1824   1.082       .  S
C1825      C1830   1.381       .  A
C1825      C1826   1.396       .  A
C1825      O1831   1.314       .  A
C1826      C1827   1.397       .  A
C1826      H1837   1.082       .  S
C1827      C1836   1.352       .  A
C1827      C1828   1.382       .  A
C1828      C1829   1.403       .  A
C1828      O1834   1.320       .  A
C1829      C1830   1.403       .  A
C1829      H1838   1.082       .  S
C1830      C1833   1.359       .  A
O1831      C1832   1.327       .  A
C1832      C1833   1.393       .  A
C1833      H1839   1.083       .  S
O1834      C1835   1.331       .  A
C1835      C1836   1.389       .  A
C1836      H1840   1.083       .  S
C1841      C1846   1.379       .  A
C1841      C1842   1.416       .  A
C1841      O1847   1.332       .  A
C1842      C1843   1.416       .  A
C1842      H1853   1.082       .  S
C1843      C1852   1.376       .  A
C1843      C1844   1.380       .  A
C1844      C1845   1.396       .  A
C1844      O1850   1.314       .  A
C1845      C1846   1.395       .  A
C1845      H1854   1.083       .  S
C1846      C1849   1.350       .  A
O1847      C1848   1.338       .  A
C1848      C1849   1.390       .  A
C1849      H1855   1.083       .  S
O1850      C1851   1.327       .  A
C1851      C1852   1.398       .  A
C1852      H1856   1.082       .  S
C1857      C1862   1.375       .  A
C1857      C1858   1.419   1_545  A
C1857      O1863   1.332       .  A
C1858      C1859   1.418   1_565  A
C1858      H1869   1.082       .  S
C1859      C1868   1.380       .  A
C1859      C1860   1.379       .  A
C1860      C1861   1.404       .  A
C1860      O1866   1.319       .  A
C1861      C1862   1.403       .  A
C1861      H1870   1.082       .  S
C1862      C1865   1.361       .  A
O1863      C1864   1.342       .  A
C1864      C1865   1.399       .  A
C1865      H1871   1.079       .  S
O1866      C1867   1.333       .  A
C1867      C1868   1.401       .  A
C1868      H1872   1.082   1_545  S
C1873      C1878   1.379       .  A
C1873      C1874   1.410       .  A
C1873      O1879   1.325       .  A
C1874      C1875   1.409       .  A
C1874      H1885   1.082   1_545  S
C1875      C1884   1.368       .  A
C1875      C1876   1.379       .  A
C1876      C1877   1.411       .  A
C1876      O1882   1.326       .  A
C1877      C1878   1.410       .  A
C1877      H1886   1.082       .  S
C1878      C1881   1.371       .  A
O1879      C1880   1.335       .  A
C1880      C1881   1.395       .  A
C1881      H1887   1.082       .  S
O1882      C1883   1.336       .  A
C1883      C1884   1.395       .  A
C1884      H1888   1.082   1_545  S
C1889      C1894   1.379       .  A
C1889      C1890   1.403       .  A
C1889      O1895   1.320       .  A
C1890      C1891   1.402       .  A
C1890      H1901   1.082       .  S
C1891      C1900   1.360       .  A
C1891      C1892   1.378       .  A
C1892      C1893   1.419       .  A
C1892      O1898   1.334       .  A
C1893      C1894   1.419       .  A
C1893      H1902   1.082       .  S
C1894      C1897   1.381       .  A
O1895      C1896   1.332       .  A
C1896      C1897   1.402       .  A
C1897      H1903   1.082       .  S
O1898      C1899   1.340       .  A
C1899      C1900   1.394       .  A
C1900      H1904   1.083       .  S
C1905      C1910   1.382       .  A
C1905      C1906   1.395       .  A
C1905      O1911   1.315       .  A
C1906      C1907   1.396       .  A
C1906      H1917   1.083       .  S
C1907      C1916   1.348       .  A
C1907      C1908   1.380       .  A
C1908      C1909   1.405       .  A
C1908      O1914   1.323       .  A
C1909      C1910   1.406       .  A
C1909      H1918   1.082       .  S
C1910      C1913   1.361       .  A
O1911      C1912   1.327       .  A
C1912      C1913   1.393       .  A
C1913      H1919   1.083       .  S
O1914      C1915   1.332       .  A
C1915      C1916   1.392       .  A
C1916      H1920   1.082       .  S
C1921      C1926   1.381       .  A
C1921      C1922   1.397       .  A
C1921      O1927   1.313       .  A
C1922      C1923   1.396       .  A
C1922      H1933   1.082       .  S
C1923      C1932   1.353       .  A
C1923      C1924   1.381       .  A
C1924      C1925   1.407       .  A
C1924      O1930   1.322       .  A
C1925      C1926   1.406       .  A
C1925      H1934   1.082       .  S
C1926      C1929   1.365       .  A
O1927      C1928   1.327       .  A
C1928      C1929   1.391       .  A
C1929      H1935   1.082       .  S
O1930      C1931   1.333       .  A
C1931      C1932   1.387       .  A
C1932      H1936   1.083       .  S
C1937      C1942   1.377       .  A
C1937      C1938   1.408       .  A
C1937      O1943   1.323       .  A
C1938      C1939   1.408       .  A
C1938      H1949   1.082       .  S
C1939      C1948   1.367       .  A
C1939      C1940   1.380       .  A
C1940      C1941   1.404       .  A
C1940      O1946   1.321       .  A
C1941      C1942   1.404       .  A
C1941      H1950   1.082       .  S
C1942      C1945   1.361       .  A
O1943      C1944   1.335       .  A
C1944      C1945   1.399       .  A
C1945      H1951   1.080       .  S
O1946      C1947   1.332       .  A
C1947      C1948   1.395       .  A
C1948      H1952   1.082       .  S
C1953      C1958   1.378       .  A
C1953      C1954   1.412       .  A
C1953      O1959   1.329       .  A
C1954      C1955   1.413       .  A
C1954      H1965   1.082       .  S
C1955      C1964   1.370       .  A
C1955      C1956   1.379       .  A
C1956      C1957   1.409       .  A
C1956      O1962   1.328       .  A
C1957      C1958   1.409       .  A
C1957      H1966   1.082       .  S
C1958      C1961   1.366       .  A
O1959      C1960   1.337       .  A
C1960      C1961   1.396       .  A
C1961      H1967   1.082       .  S
O1962      C1963   1.335       .  A
C1963      C1964   1.397       .  A
C1964      H1968   1.082       .  S
C1969      C1974   1.379       .  A
C1969      C1970   1.408       .  A
C1969      O1975   1.319       .  A
C1970      C1971   1.405       .  A
C1970      H1981   1.082       .  S
C1971      C1980   1.371       .  A
C1971      C1972   1.379       .  A
C1972      C1973   1.406       .  A
C1972      O1978   1.317       .  A
C1973      C1974   1.403       .  A
C1973      H1982   1.082       .  S
C1974      C1977   1.368       .  A
O1975      C1976   1.333       .  A
C1976      C1977   1.392       .  A
C1977      H1983   1.082       .  S
O1978      C1979   1.334       .  A
C1979      C1980   1.392       .  A
C1980      H1984   1.082       .  S
C1985      C1990   1.380       .  A
C1985      C1986   1.408       .  A
C1985      O1991   1.321       .  A
C1986      C1987   1.406       .  A
C1986      H1997   1.082       .  S
C1987      C1996   1.369       .  A
C1987      C1988   1.380       .  A
C1988      C1989   1.403       .  A
C1988      O1994   1.316       .  A
C1989      C1990   1.401       .  A
C1989      H1998   1.082       .  S
C1990      C1993   1.362       .  A
O1991      C1992   1.333       .  A
C1992      C1993   1.392       .  A
C1993      H1999   1.083       .  S
O1994      C1995   1.331       .  A
C1995      C1996   1.392       .  A
C1996      H2000   1.082       .  S
C2001      C2006   1.381       .  A
C2001      C2002   1.397       .  A
C2001      O2007   1.315       .  A
C2002      C2003   1.398       .  A
C2002      H2013   1.083       .  S
C2003      C2012   1.353       .  A
C2003      C2004   1.380       .  A
C2004      C2005   1.412       .  A
C2004      O2010   1.329       .  A
C2005      C2006   1.413       .  A
C2005      H2014   1.082       .  S
C2006      C2009   1.371       .  A
O2007      C2008   1.327       .  A
C2008      C2009   1.396       .  A
C2009      H2015   1.082       .  S
O2010      C2011   1.335       .  A
C2011      C2012   1.390       .  A
C2012      H2016   1.083       .  S
C2017      C2022   1.380       .  A
C2017      C2018   1.406       .  A
C2017      O2023   1.327       .  A
C2018      C2019   1.408       .  A
C2018      H2029   1.082       .  S
C2019      C2028   1.360       .  A
C2019      C2020   1.380       .  A
C2020      C2021   1.402       .  A
C2020      O2026   1.323       .  A
C2021      C2022   1.404       .  A
C2021      H2030   1.082       .  S
C2022      C2025   1.355       .  A
O2023      C2024   1.333       .  A
C2024      C2025   1.394       .  A
C2025      H2031   1.083       .  S
O2026      C2027   1.330       .  A
C2027      C2028   1.396       .  A
C2028      H2032   1.083       .  S
C2033      C2038   1.381       .  A
C2033      C2034   1.397       .  A
C2033      O2039   1.315       .  A
C2034      C2035   1.397       .  A
C2034      H2045   1.082       .  S
C2035      C2044   1.354       .  A
C2035      C2036   1.381       .  A
C2036      C2037   1.403       .  A
C2036      O2042   1.318       .  A
C2037      C2038   1.403       .  A
C2037      H2046   1.082       .  S
C2038      C2041   1.360       .  A
O2039      C2040   1.327       .  A
C2040      C2041   1.393       .  A
C2041      H2047   1.083       .  S
O2042      C2043   1.331       .  A
C2043      C2044   1.389       .  A
C2044      H2048   1.083       .  S
C2049      C2054   1.377       .  A
C2049      C2050   1.423       .  A
C2049      O2055   1.337       .  A
C2050      C2051   1.423       .  A
C2050      H2061   1.082       .  S
C2051      C2060   1.386       .  A
C2051      C2052   1.378       .  A
C2052      C2053   1.404       .  A
C2052      O2058   1.319       .  A
C2053      C2054   1.403       .  A
C2053      H2062   1.082       .  S
C2054      C2057   1.361       .  A
O2055      C2056   1.342       .  A
C2056      C2057   1.393       .  A
C2057      H2063   1.083       .  S
O2058      C2059   1.334       .  A
C2059      C2060   1.404       .  A
C2060      H2064   1.082       .  S
C2065      C2070   1.378       .  A
C2065      C2066   1.402       .  A
C2065      O2071   1.315       .  A
C2066      C2067   1.400       .  A
C2066      H2077   1.083       .  S
C2067      C2076   1.361       .  A
C2067      C2068   1.378       .  A
C2068      C2069   1.418       .  A
C2068      O2074   1.332       .  A
C2069      C2070   1.417       .  A
C2069      H2078   1.082       .  S
C2070      C2073   1.382       .  A
O2071      C2072   1.332       .  A
C2072      C2073   1.400       .  A
C2073      H2079   1.082       .  S
O2074      C2075   1.339       .  A
C2075      C2076   1.392       .  A
C2076      H2080   1.083       .  S
C2081      C2086   1.379       .  A
C2081      C2082   1.413       .  A
C2081      O2087   1.329       .  A
C2082      C2083   1.413       .  A
C2082      H2093   1.082       .  S
C2083      C2092   1.373       .  A
C2083      C2084   1.380       .  A
C2084      C2085   1.396       .  A
C2084      O2090   1.312       .  A
C2085      C2086   1.396       .  A
C2085      H2094   1.083       .  S
C2086      C2089   1.351       .  A
O2087      C2088   1.336       .  A
C2088      C2089   1.390       .  A
C2089      H2095   1.083       .  S
O2090      C2091   1.328       .  A
C2091      C2092   1.396       .  A
C2092      H2096   1.082       .  S
C2097      C2102   1.380   1_655  A
C2097      C2098   1.405       .  A
C2097      O2103   1.323       .  A
C2098      C2099   1.405       .  A
C2098      H2109   1.082       .  S
C2099      C2108   1.362       .  A
C2099      C2100   1.380   1_655  A
C2100      C2101   1.407       .  A
C2100      O2106   1.323       .  A
C2101      C2102   1.407       .  A
C2101      H2110   1.082       .  S
C2102      C2105   1.364       .  A
O2103      C2104   1.331   1_655  A
C2104      C2105   1.394       .  A
C2105      H2111   1.082       .  S
O2106      C2107   1.333       .  A
C2107      C2108   1.393   1_455  A
C2108      H2112   1.083       .  S
C2113      C2118   1.379   1_455  A
C2113      C2114   1.404       .  A
C2113      O2119   1.316       .  A
C2114      C2115   1.403       .  A
C2114      H2125   1.082       .  S
C2115      C2124   1.365       .  A
C2115      C2116   1.380   1_455  A
C2116      C2117   1.405       .  A
C2116      O2122   1.319       .  A
C2117      C2118   1.403       .  A
C2117      H2126   1.082       .  S
C2118      C2121   1.365       .  A
O2119      C2120   1.333       .  A
C2120      C2121   1.393   1_455  A
C2121      H2127   1.082       .  S
O2122      C2123   1.332   1_655  A
C2123      C2124   1.393       .  A
C2124      H2128   1.083       .  S
C2129      C2134   1.382       .  A
C2129      C2130   1.397       .  A
C2129      O2135   1.311       .  A
C2130      C2131   1.395       .  A
C2130      H2141   1.082       .  S
C2131      C2140   1.355       .  A
C2131      C2132   1.378       .  A
C2132      C2133   1.403       .  A
C2132      O2138   1.316       .  A
C2133      C2134   1.402       .  A
C2133      H2142   1.082       .  S
C2134      C2137   1.363       .  A
O2135      C2136   1.326       .  A
C2136      C2137   1.390       .  A
C2137      H2143   1.083       .  S
O2138      C2139   1.332       .  A
C2139      C2140   1.392       .  A
C2140      H2144   1.080       .  S
C2145      C2150   1.380       .  A
C2145      C2146   1.400       .  A
C2145      O2151   1.319       .  A
C2146      C2147   1.401       .  A
C2146      H2157   1.082       .  S
C2147      C2156   1.356       .  A
C2147      C2148   1.380       .  A
C2148      C2149   1.405       .  A
C2148      O2154   1.324       .  A
C2149      C2150   1.407       .  A
C2149      H2158   1.082       .  S
C2150      C2153   1.361       .  A
O2151      C2152   1.329       .  A
C2152      C2153   1.398       .  A
C2153      H2159   1.082       .  S
O2154      C2155   1.333       .  A
C2155      C2156   1.391       .  A
C2156      H2160   1.083       .  S
C2161      C2166   1.378       .  A
C2161      C2162   1.410       .  A
C2161      O2167   1.325       .  A
C2162      C2163   1.410       .  A
C2162      H2173   1.082       .  S
C2163      C2172   1.371       .  A
C2163      C2164   1.380       .  A
C2164      C2165   1.398       .  A
C2164      O2170   1.313       .  A
C2165      C2166   1.396       .  A
C2165      H2174   1.083       .  S
C2166      C2169   1.353       .  A
O2167      C2168   1.335       .  A
C2168      C2169   1.392       .  A
C2169      H2175   1.082       .  S
O2170      C2171   1.328       .  A
C2171      C2172   1.395       .  A
C2172      H2176   1.082       .  S
C2177      C2182   1.380       .  A
C2177      C2178   1.401       .  A
C2177      O2183   1.315       .  A
C2178      C2179   1.400       .  A
C2178      H2189   1.082       .  S
C2179      C2188   1.359       .  A
C2179      C2180   1.377       .  A
C2180      C2181   1.411       .  A
C2180      O2186   1.324       .  A
C2181      C2182   1.409       .  A
C2181      H2190   1.082       .  S
C2182      C2185   1.371       .  A
O2183      C2184   1.330       .  A
C2184      C2185   1.394       .  A
C2185      H2191   1.082       .  S
O2186      C2187   1.337       .  A
C2187      C2188   1.396       .  A
C2188      H2192   1.080       .  S
C2193      C2198   1.379       .  A
C2193      C2194   1.408       .  A
C2193      O2199   1.327       .  A
C2194      C2195   1.409       .  A
C2194      H2205   1.082       .  S
C2195      C2204   1.364       .  A
C2195      C2196   1.380       .  A
C2196      C2197   1.404       .  A
C2196      O2202   1.325       .  A
C2197      C2198   1.406       .  A
C2197      H2206   1.082       .  S
C2198      C2201   1.360       .  A
O2199      C2200   1.335       .  A
C2200      C2201   1.396       .  A
C2201      H2207   1.082       .  S
O2202      C2203   1.332       .  A
C2203      C2204   1.397       .  A
C2204      H2208   1.083       .  S
C2209      C2214   1.378       .  A
C2209      C2210   1.408       .  A
C2209      O2215   1.321       .  A
C2210      C2211   1.406       .  A
C2210      H2221   1.082       .  S
C2211      C2220   1.367       .  A
C2211      C2212   1.378       .  A
C2212      C2213   1.415       .  A
C2212      O2218   1.329       .  A
C2213      C2214   1.414       .  A
C2213      H2222   1.082       .  S
C2214      C2217   1.377       .  A
O2215      C2216   1.335       .  A
C2216      C2217   1.397       .  A
C2217      H2223   1.082       .  S
O2218      C2219   1.337       .  A
C2219      C2220   1.395       .  A
C2220      H2224   1.083       .  S
C2225      C2230   1.377       .  A
C2225      C2226   1.421       .  A
C2225      O2231   1.335       .  A
C2226      C2227   1.421       .  A
C2226      H2237   1.082       .  S
C2227      C2236   1.385       .  A
C2227      C2228   1.378       .  A
C2228      C2229   1.403       .  A
C2228      O2234   1.318       .  A
C2229      C2230   1.402       .  A
C2229      H2238   1.083       .  S
C2230      C2233   1.360       .  A
O2231      C2232   1.341       .  A
C2232      C2233   1.394       .  A
C2233      H2239   1.083       .  S
O2234      C2235   1.333       .  A
C2235      C2236   1.403       .  A
C2236      H2240   1.082       .  S
C2241      C2246   1.380       .  A
C2241      C2242   1.407       .  A
C2241      O2247   1.321       .  A
C2242      C2243   1.406       .  A
C2242      H2253   1.082       .  S
C2243      C2252   1.367       .  A
C2243      C2244   1.381       .  A
C2244      C2245   1.400       .  A
C2244      O2250   1.315       .  A
C2245      C2246   1.398       .  A
C2245      H2254   1.082       .  S
C2246      C2249   1.357       .  A
O2247      C2248   1.332       .  A
C2248      C2249   1.388       .  A
C2249      H2255   1.083       .  S
O2250      C2251   1.330       .  A
C2251      C2252   1.394       .  A
C2252      H2256   1.082       .  S
C2257      C2262   1.381   1_556  A
C2257      C2258   1.407       .  A
C2257      O2263   1.321       .  A
C2258      C2259   1.406       .  A
C2258      H2269   1.082       .  S
C2259      C2268   1.369       .  A
C2259      C2260   1.380   1_556  A
C2260      C2261   1.400       .  A
C2260      O2266   1.315       .  A
C2261      C2262   1.398       .  A
C2261      H2270   1.082       .  S
C2262      C2265   1.359       .  A
O2263      C2264   1.332   1_556  A
C2264      C2265   1.388       .  A
C2265      H2271   1.083       .  S
O2266      C2267   1.330   1_554  A
C2267      C2268   1.394       .  A
C2268      H2272   1.082       .  S
C2273      C2278   1.381   1_556  A
C2273      C2274   1.404       .  A
C2273      O2279   1.322       .  A
C2274      C2275   1.405       .  A
C2274      H2285   1.082       .  S
C2275      C2284   1.361       .  A
C2275      C2276   1.382   1_556  A
C2276      C2277   1.393       .  A
C2276      O2282   1.313       .  A
C2277      C2278   1.394       .  A
C2277      H2286   1.083       .  S
C2278      C2281   1.346       .  A
O2279      C2280   1.331   1_556  A
C2280      C2281   1.390       .  A
C2281      H2287   1.082       .  S
O2282      C2283   1.325   1_554  A
C2283      C2284   1.392       .  A
C2284      H2288   1.082       .  S
C2289      C2294   1.379       .  A
C2289      C2290   1.397       .  A
C2289      O2295   1.308       .  A
C2290      C2291   1.393       .  A
C2290      H2301   1.082       .  S
C2291      C2300   1.356       .  A
C2291      C2292   1.380       .  A
C2292      C2293   1.406       .  A
C2292      O2298   1.317       .  A
C2293      C2294   1.403       .  A
C2293      H2302   1.082       .  S
C2294      C2297   1.368       .  A
O2295      C2296   1.329       .  A
C2296      C2297   1.393       .  A
C2297      H2303   1.082       .  S
O2298      C2299   1.332       .  A
C2299      C2300   1.387       .  A
C2300      H2304   1.083       .  S
C2305      C2310   1.381       .  A
C2305      C2306   1.393       .  A
C2305      O2311   1.313       .  A
C2306      C2307   1.394       .  A
C2306      H2317   1.083       .  S
C2307      C2316   1.344       .  A
C2307      C2308   1.380       .  A
C2308      C2309   1.406       .  A
C2308      O2314   1.325       .  A
C2309      C2310   1.408       .  A
C2309      H2318   1.082       .  S
C2310      C2313   1.362       .  A
O2311      C2312   1.325       .  A
C2312      C2313   1.394       .  A
C2313      H2319   1.082       .  S
O2314      C2315   1.332       .  A
C2315      C2316   1.389       .  A
C2316      H2320   1.082       .  S
C2321      C2326   1.381   1_556  A
C2321      C2322   1.399       .  A
C2321      O2327   1.314       .  A
C2322      C2323   1.397       .  A
C2322      H2333   1.082       .  S
C2323      C2332   1.357       .  A
C2323      C2324   1.380   1_556  A
C2324      C2325   1.407       .  A
C2324      O2330   1.321       .  A
C2325      C2326   1.406       .  A
C2325      H2334   1.082       .  S
C2326      C2329   1.367       .  A
O2327      C2328   1.328       .  A
C2328      C2329   1.392   1_556  A
C2329      H2335   1.083       .  S
O2330      C2331   1.333   1_554  A
C2331      C2332   1.389       .  A
C2332      H2336   1.083       .  S
C2337      C2342   1.381   1_554  A
C2337      C2338   1.407       .  A
C2337      O2343   1.322       .  A
C2338      C2339   1.406       .  A
C2338      H2349   1.082       .  S
C2339      C2348   1.365   1_554  A
C2339      C2340   1.381   1_554  A
C2340      C2341   1.395       .  A
C2340      O2346   1.312       .  A
C2341      C2342   1.396       .  A
C2341      H2350   1.083       .  S
C2342      C2345   1.350       .  A
O2343      C2344   1.332       .  A
C2344      C2345   1.391   1_554  A
C2345      H2351   1.083       .  S
O2346      C2347   1.326       .  A
C2347      C2348   1.393       .  A
C2348      H2352   1.082   1_556  S
C2353      C2358   1.380       .  A
C2353      C2354   1.400       .  A
C2353      O2359   1.318       .  A
C2354      C2355   1.401       .  A
C2354      H2365   1.083       .  S
C2355      C2364   1.354       .  A
C2355      C2356   1.380       .  A
C2356      C2357   1.410       .  A
C2356      O2362   1.328       .  A
C2357      C2358   1.411       .  A
C2357      H2366   1.082       .  S
C2358      C2361   1.367       .  A
O2359      C2360   1.331       .  A
C2360      C2361   1.396       .  A
C2361      H2367   1.082       .  S
O2362      C2363   1.335       .  A
C2363      C2364   1.393       .  A
C2364      H2368   1.083       .  S
C2369      C2374   1.379       .  A
C2369      C2370   1.407       .  A
C2369      O2375   1.317       .  A
C2370      C2371   1.404       .  A
C2370      H2381   1.082       .  S
C2371      C2380   1.369       .  A
C2371      C2372   1.380       .  A
C2372      C2373   1.403       .  A
C2372      O2378   1.315       .  A
C2373      C2374   1.401       .  A
C2373      H2382   1.082       .  S
C2374      C2377   1.366       .  A
O2375      C2376   1.335       .  A
C2376      C2377   1.391       .  A
C2377      H2383   1.082       .  S
O2378      C2379   1.331       .  A
C2379      C2380   1.393       .  A
C2380      H2384   1.082       .  S
C2385      C2390   1.379       .  A
C2385      C2386   1.411   1_565  A
C2385      O2391   1.331   1_565  A
C2386      C2387   1.413       .  A
C2386      H2397   1.082       .  S
C2387      C2396   1.367       .  A
C2387      C2388   1.379   1_545  A
C2388      C2389   1.406       .  A
C2388      O2394   1.327       .  A
C2389      C2390   1.409       .  A
C2389      H2398   1.082       .  S
C2390      C2393   1.361       .  A
O2391      C2392   1.336   1_545  A
C2392      C2393   1.397       .  A
C2393      H2399   1.082       .  S
O2394      C2395   1.334       .  A
C2395      C2396   1.397   1_565  A
C2396      H2400   1.082       .  S
C2401      C2406   1.378   1_565  A
C2401      C2402   1.399       .  A
C2401      O2407   1.315       .  A
C2402      C2403   1.398       .  A
C2402      H2413   1.083       .  S
C2403      C2412   1.355       .  A
C2403      C2404   1.378   1_565  A
C2404      C2405   1.421       .  A
C2404      O2410   1.336       .  A
C2405      C2406   1.421       .  A
C2405      H2414   1.082       .  S
C2406      C2409   1.384       .  A
O2407      C2408   1.331       .  A
C2408      C2409   1.403   1_565  A
C2409      H2415   1.082       .  S
O2410      C2411   1.341   1_545  A
C2411      C2412   1.391       .  A
C2412      H2416   1.083       .  S
C2417      C2422   1.378       .  A
C2417      C2418   1.418       .  A
C2417      O2423   1.330       .  A
C2418      C2419   1.417       .  A
C2418      H2429   1.082       .  S
C2419      C2428   1.383       .  A
C2419      C2420   1.379       .  A
C2420      C2421   1.395       .  A
C2420      O2426   1.308       .  A
C2421      C2422   1.393       .  A
C2421      H2430   1.083       .  S
C2422      C2425   1.352       .  A
O2423      C2424   1.338       .  A
C2424      C2425   1.389       .  A
C2425      H2431   1.082       .  S
O2426      C2427   1.328       .  A
C2427      C2428   1.401       .  A
C2428      H2432   1.082       .  S
C2433      C2438   1.380       .  A
C2433      C2434   1.397       .  A
C2433      O2439   1.315       .  A
C2434      C2435   1.398       .  A
C2434      H2445   1.083       .  S
C2435      C2444   1.352       .  A
C2435      C2436   1.380       .  A
C2436      C2437   1.407       .  A
C2436      O2442   1.325   1_554  A
C2437      C2438   1.408       .  A
C2437      H2446   1.082       .  S
C2438      C2441   1.365       .  A
O2439      C2440   1.329       .  A
C2440      C2441   1.395       .  A
C2441      H2447   1.082       .  S
O2442      C2443   1.333       .  A
C2443      C2444   1.391   1_556  A
C2444      H2448   1.083       .  S
C2449      C2454   1.380       .  A
C2449      C2450   1.403       .  A
C2449      O2455   1.320       .  A
C2450      C2451   1.403       .  A
C2450      H2461   1.082       .  S
C2451      C2460   1.359       .  A
C2451      C2452   1.380       .  A
C2452      C2453   1.402       .  A
C2452      O2458   1.319       .  A
C2453      C2454   1.403       .  A
C2453      H2462   1.082       .  S
C2454      C2457   1.359       .  A
O2455      C2456   1.330       .  A
C2456      C2457   1.394       .  A
C2457      H2463   1.082       .  S
O2458      C2459   1.330       .  A
C2459      C2460   1.393       .  A
C2460      H2464   1.083       .  S
C2465      C2470   1.381   1_554  A
C2465      C2466   1.402       .  A
C2465      O2471   1.320       .  A
C2466      C2467   1.403       .  A
C2466      H2477   1.082       .  S
C2467      C2476   1.358       .  A
C2467      C2468   1.382   1_554  A
C2468      C2469   1.398       .  A
C2468      O2474   1.316       .  A
C2469      C2470   1.398       .  A
C2469      H2478   1.083       .  S
C2470      C2473   1.352       .  A
O2471      C2472   1.330       .  A
C2472      C2473   1.390   1_554  A
C2473      H2479   1.083       .  S
O2474      C2475   1.327       .  A
C2475      C2476   1.389   1_556  A
C2476      H2480   1.082       .  S
C2481      C2486   1.380   1_556  A
C2481      C2482   1.399       .  A
C2481      O2487   1.313       .  A
C2482      C2483   1.397       .  A
C2482      H2493   1.082       .  S
C2483      C2492   1.358       .  A
C2483      C2484   1.380   1_556  A
C2484      C2485   1.405       .  A
C2484      O2490   1.319       .  A
C2485      C2486   1.404       .  A
C2485      H2494   1.082       .  S
C2486      C2489   1.365       .  A
O2487      C2488   1.329       .  A
C2488      C2489   1.393   1_556  A
C2489      H2495   1.082       .  S
O2490      C2491   1.332       .  A
C2491      C2492   1.390   1_554  A
C2492      H2496   1.083       .  S
C2497      C2502   1.381       .  A
C2497      C2498   1.403       .  A
C2497      O2503   1.321       .  A
C2498      C2499   1.404       .  A
C2498      H2509   1.082       .  S
C2499      C2508   1.359       .  A
C2499      C2500   1.379       .  A
C2500      C2501   1.401       .  A
C2500      O2506   1.318       .  A
C2501      C2502   1.402       .  A
C2501      H2510   1.082       .  S
C2502      C2505   1.358       .  A
O2503      C2504   1.330       .  A
C2504      C2505   1.390       .  A
C2505      H2511   1.083       .  S
O2506      C2507   1.330       .  A
C2507      C2508   1.395       .  A
C2508      H2512   1.081       .  S
C2513      C2518   1.379       .  A
C2513      C2514   1.413       .  A
C2513      O2519   1.331       .  A
C2514      C2515   1.414       .  A
C2514      H2525   1.082       .  S
C2515      C2524   1.370       .  A
C2515      C2516   1.379       .  A
C2516      C2517   1.408       .  A
C2516      O2522   1.327       .  A
C2517      C2518   1.409       .  A
C2517      H2526   1.082       .  S
C2518      C2521   1.365       .  A
O2519      C2520   1.338       .  A
C2520      C2521   1.395       .  A
C2521      H2527   1.082       .  S
O2522      C2523   1.334       .  A
C2523      C2524   1.398       .  A
C2524      H2528   1.082       .  S
C2529      C2534   1.379       .  A
C2529      C2530   1.407       .  A
C2529      O2535   1.319       .  A
C2530      C2531   1.404       .  A
C2530      H2541   1.082       .  S
C2531      C2540   1.370       .  A
C2531      C2532   1.378       .  A
C2532      C2533   1.410       .  A
C2532      O2538   1.320       .  A
C2533      C2534   1.407       .  A
C2533      H2542   1.082       .  S
C2534      C2537   1.372       .  A
O2535      C2536   1.333       .  A
C2536      C2537   1.395       .  A
C2537      H2543   1.082       .  S
O2538      C2539   1.336       .  A
C2539      C2540   1.392       .  A
C2540      H2544   1.082       .  S
C2545      C2550   1.379       .  A
C2545      C2546   1.414       .  A
C2545      O2551   1.328       .  A
C2546      C2547   1.413       .  A
C2546      H2557   1.082       .  S
C2547      C2556   1.375       .  A
C2547      C2548   1.379       .  A
C2548      C2549   1.404       .  A
C2548      O2554   1.317       .  A
C2549      C2550   1.402       .  A
C2549      H2558   1.082       .  S
C2550      C2553   1.364       .  A
O2551      C2552   1.337       .  A
C2552      C2553   1.390       .  A
C2553      H2559   1.082       .  S
O2554      C2555   1.332       .  A
C2555      C2556   1.396       .  A
C2556      H2560   1.082       .  S
C2561      C2566   1.380       .  A
C2561      C2562   1.405       .  A
C2561      O2567   1.324       .  A
C2562      C2563   1.406       .  A
C2562      H2573   1.082       .  S
C2563      C2572   1.360       .  A
C2563      C2564   1.379       .  A
C2564      C2565   1.407       .  A
C2564      O2570   1.325       .  A
C2565      C2566   1.408       .  A
C2565      H2574   1.082       .  S
C2566      C2569   1.364       .  A
O2567      C2568   1.333       .  A
C2568      C2569   1.395       .  A
C2569      H2575   1.082       .  S
O2570      C2571   1.333       .  A
C2571      C2572   1.396       .  A
C2572      H2576   1.082       .  S
C2577      C2582   1.379       .  A
C2577      C2578   1.406       .  A
C2577      O2583   1.316       .  A
C2578      C2579   1.403       .  A
C2578      H2589   1.082       .  S
C2579      C2588   1.370       .  A
C2579      C2580   1.379       .  A
C2580      C2581   1.405       .  A
C2580      O2586   1.314       .  A
C2581      C2582   1.401       .  A
C2581      H2590   1.082       .  S
C2582      C2585   1.368       .  A
O2583      C2584   1.333       .  A
C2584      C2585   1.390       .  A
C2585      H2591   1.082       .  S
O2586      C2587   1.333       .  A
C2587      C2588   1.391       .  A
C2588      H2592   1.082       .  S
C2593      C2598   1.381       .  A
C2593      C2594   1.397       .  A
C2593      O2599   1.311       .  A
C2594      C2595   1.395       .  A
C2594      H2605   1.083       .  S
C2595      C2604   1.355       .  A
C2595      C2596   1.381       .  A
C2596      C2597   1.409       .  A
C2596      O2602   1.323       .  A
C2597      C2598   1.408       .  A
C2597      H2606   1.082       .  S
C2598      C2601   1.371       .  A
O2599      C2600   1.328       .  A
C2600      C2601   1.393       .  A
C2601      H2607   1.082       .  S
O2602      C2603   1.333       .  A
C2603      C2604   1.387       .  A
C2604      H2608   1.083       .  S
C2609      C2614   1.381       .  A
C2609      C2610   1.402       .  A
C2609      O2615   1.316       .  A
C2610      C2611   1.400       .  A
C2610      H2621   1.082       .  S
C2611      C2620   1.360       .  A
C2611      C2612   1.381       .  A
C2612      C2613   1.401       .  A
C2612      O2618   1.316       .  A
C2613      C2614   1.400       .  A
C2613      H2622   1.082       .  S
C2614      C2617   1.359       .  A
O2615      C2616   1.331       .  A
C2616      C2617   1.390       .  A
C2617      H2623   1.082       .  S
O2618      C2619   1.330       .  A
C2619      C2620   1.390       .  A
C2620      H2624   1.083       .  S
C2625      C2630   1.378       .  A
C2625      C2626   1.412       .  A
C2625      O2631   1.321       .  A
C2626      C2627   1.409       .  A
C2626      H2637   1.082       .  S
C2627      C2636   1.376       .  A
C2627      C2628   1.379       .  A
C2628      C2629   1.407       .  A
C2628      O2634   1.317       .  A
C2629      C2630   1.403       .  A
C2629      H2638   1.082       .  S
C2630      C2633   1.370       .  A
O2631      C2632   1.336       .  A
C2632      C2633   1.393       .  A
C2633      H2639   1.082       .  S
O2634      C2635   1.333       .  A
C2635      C2636   1.396       .  A
C2636      H2640   1.082       .  S
C2641      C2646   1.378       .  A
C2641      C2642   1.402       .  A
C2641      O2647   1.318       .  A
C2642      C2643   1.402       .  A
C2642      H2653   1.083       .  S
C2643      C2652   1.358       .  A
C2643      C2644   1.378       .  A
C2644      C2645   1.421       .  A
C2644      O2650   1.337       .  A
C2645      C2646   1.421       .  A
C2645      H2654   1.082       .  S
C2646      C2649   1.383       .  A
O2647      C2648   1.332       .  A
C2648      C2649   1.402       .  A
C2649      H2655   1.082       .  S
O2650      C2651   1.342       .  A
C2651      C2652   1.394       .  A
C2652      H2656   1.083       .  S
C2657      C2662   1.379       .  A
C2657      C2658   1.409       .  A
C2657      O2663   1.321       .  A
C2658      C2659   1.407       .  A
C2658      H2669   1.082       .  S
C2659      C2668   1.370       .  A
C2659      C2660   1.379       .  A
C2660      C2661   1.408       .  A
C2660      O2666   1.320       .  A
C2661      C2662   1.405       .  A
C2661      H2670   1.082       .  S
C2662      C2665   1.369       .  A
O2663      C2664   1.335       .  A
C2664      C2665   1.392       .  A
C2665      H2671   1.082       .  S
O2666      C2667   1.334       .  A
C2667      C2668   1.394       .  A
C2668      H2672   1.082       .  S
C2673      C2678   1.380       .  A
C2673      C2674   1.399       .  A
C2673      O2679   1.310       .  A
C2674      C2675   1.396       .  A
C2674      H2685   1.082       .  S
C2675      C2684   1.359       .  A
C2675      C2676   1.380       .  A
C2676      C2677   1.403       .  A
C2676      O2682   1.314       .  A
C2677      C2678   1.400       .  A
C2677      H2686   1.082       .  S
C2678      C2681   1.362       .  A
O2679      C2680   1.329       .  A
C2680      C2681   1.391       .  A
C2681      H2687   1.082       .  S
O2682      C2683   1.331       .  A
C2683      C2684   1.388       .  A
C2684      H2688   1.083       .  S
C2689      C2694   1.378       .  A
C2689      C2690   1.407       .  A
C2689      O2695   1.314       .  A
C2690      C2691   1.402       .  A
C2690      H2701   1.082       .  S
C2691      C2700   1.371       .  A
C2691      C2692   1.379       .  A
C2692      C2693   1.406       .  A
C2692      O2698   1.313       .  A
C2693      C2694   1.402       .  A
C2693      H2702   1.082       .  S
C2694      C2697   1.371       .  A
O2695      C2696   1.334       .  A
C2696      C2697   1.392       .  A
C2697      H2703   1.082       .  S
O2698      C2699   1.332       .  A
C2699      C2700   1.392       .  A
C2700      H2704   1.082       .  S
C2705      C2710   1.380       .  A
C2705      C2706   1.400       .  A
C2705      O2711   1.313       .  A
C2706      C2707   1.398       .  A
C2706      H2717   1.082       .  S
C2707      C2716   1.359       .  A
C2707      C2708   1.380       .  A
C2708      C2709   1.404       .  A
C2708      O2714   1.318       .  A
C2709      C2710   1.403       .  A
C2709      H2718   1.082       .  S
C2710      C2713   1.364       .  A
O2711      C2712   1.330       .  A
C2712      C2713   1.392       .  A
C2713      H2719   1.082       .  S
O2714      C2715   1.332       .  A
C2715      C2716   1.390       .  A
C2716      H2720   1.083       .  S
C2721      C2726   1.380       .  A
C2721      C2722   1.409       .  A
C2721      O2727   1.324       .  A
C2722      C2723   1.408       .  A
C2722      H2733   1.082       .  S
C2723      C2732   1.369       .  A
C2723      C2724   1.381       .  A
C2724      C2725   1.397       .  A
C2724      O2730   1.312       .  A
C2725      C2726   1.396       .  A
C2725      H2734   1.083       .  S
C2726      C2729   1.354       .  A
O2727      C2728   1.334       .  A
C2728      C2729   1.387       .  A
C2729      H2735   1.083       .  S
O2730      C2731   1.328       .  A
C2731      C2732   1.392       .  A
C2732      H2736   1.082       .  S
C2737      C2742   1.379       .  A
C2737      C2738   1.408       .  A
C2737      O2743   1.322       .  A
C2738      C2739   1.407       .  A
C2738      H2749   1.082       .  S
C2739      C2748   1.370       .  A
C2739      C2740   1.379   1_565  A
C2740      C2741   1.409       .  A
C2740      O2746   1.322       .  A
C2741      C2742   1.407   1_545  A
C2741      H2750   1.082       .  S
C2742      C2745   1.369       .  A
O2743      C2744   1.334       .  A
C2744      C2745   1.394       .  A
C2745      H2751   1.082   1_565  S
O2746      C2747   1.335       .  A
C2747      C2748   1.394   1_545  A
C2748      H2752   1.082       .  S
C2753      C2758   1.379   1_565  A
C2753      C2754   1.408       .  A
C2753      O2759   1.323       .  A
C2754      C2755   1.407       .  A
C2754      H2765   1.082       .  S
C2755      C2764   1.367       .  A
C2755      C2756   1.379   1_565  A
C2756      C2757   1.407       .  A
C2756      O2762   1.322       .  A
C2757      C2758   1.406       .  A
C2757      H2766   1.082       .  S
C2758      C2761   1.366       .  A
O2759      C2760   1.334       .  A
C2760      C2761   1.394   1_565  A
C2761      H2767   1.082       .  S
O2762      C2763   1.335   1_545  A
C2763      C2764   1.395       .  A
C2764      H2768   1.082       .  S
C2769      C2774   1.380       .  A
C2769      C2770   1.407       .  A
C2769      O2775   1.325       .  A
C2770      C2771   1.408       .  A
C2770      H2781   1.082       .  S
C2771      C2780   1.363       .  A
C2771      C2772   1.380       .  A
C2772      C2773   1.405       .  A
C2772      O2778   1.324       .  A
C2773      C2774   1.406       .  A
C2773      H2782   1.082       .  S
C2774      C2777   1.362       .  A
O2775      C2776   1.334       .  A
C2776      C2777   1.394       .  A
C2777      H2783   1.083       .  S
O2778      C2779   1.332       .  A
C2779      C2780   1.394       .  A
C2780      H2784   1.082       .  S
C2785      C2790   1.377       .  A
C2785      C2786   1.413       .  A
C2785      O2791   1.324       .  A
C2786      C2787   1.410       .  A
C2786      H2797   1.082       .  S
C2787      C2796   1.375       .  A
C2787      C2788   1.379       .  A
C2788      C2789   1.401       .  A
C2788      O2794   1.313       .  A
C2789      C2790   1.399       .  A
C2789      H2798   1.083       .  S
C2790      C2793   1.360       .  A
O2791      C2792   1.338       .  A
C2792      C2793   1.395       .  A
C2793      H2799   1.080       .  S
O2794      C2795   1.331       .  A
C2795      C2796   1.395       .  A
C2796      H2800   1.082       .  S
C2801      C2806   1.379       .  A
C2801      C2802   1.410       .  A
C2801      O2807   1.322       .  A
C2802      C2803   1.408       .  A
C2802      H2813   1.082       .  S
C2803      C2812   1.371       .  A
C2803      C2804   1.380       .  A
C2804      C2805   1.404       .  A
C2804      O2810   1.317       .  A
C2805      C2806   1.402       .  A
C2805      H2814   1.082       .  S
C2806      C2809   1.365       .  A
O2807      C2808   1.336       .  A
C2808      C2809   1.391       .  A
C2809      H2815   1.082       .  S
O2810      C2811   1.331       .  A
C2811      C2812   1.393       .  A
C2812      H2816   1.082       .  S
C2817      C2822   1.380       .  A
C2817      C2818   1.401       .  A
C2817      O2823   1.312       .  A
C2818      C2819   1.398       .  A
C2818      H2829   1.082       .  S
C2819      C2828   1.363       .  A
C2819      C2820   1.379       .  A
C2820      C2821   1.408       .  A
C2820      O2826   1.317       .  A
C2821      C2822   1.405       .  A
C2821      H2830   1.082       .  S
C2822      C2825   1.370       .  A
O2823      C2824   1.330       .  A
C2824      C2825   1.393       .  A
C2825      H2831   1.082       .  S
O2826      C2827   1.334       .  A
C2827      C2828   1.389       .  A
C2828      H2832   1.082       .  S
C2833      C2838   1.379       .  A
C2833      C2834   1.416       .  A
C2833      O2839   1.331       .  A
C2834      C2835   1.416       .  A
C2834      H2845   1.082       .  S
C2835      C2844   1.377       .  A
C2835      C2836   1.379       .  A
C2836      C2837   1.403       .  A
C2836      O2842   1.319       .  A
C2837      C2838   1.402       .  A
C2837      H2846   1.082       .  S
C2838      C2841   1.360       .  A
O2839      C2840   1.338       .  A
C2840      C2841   1.393       .  A
C2841      H2847   1.083       .  S
O2842      C2843   1.332       .  A
C2843      C2844   1.399       .  A
C2844      H2848   1.082       .  S
C2849      C2854   1.381       .  A
C2849      C2850   1.403       .  A
C2849      O2855   1.318       .  A
C2850      C2851   1.402       .  A
C2850      H2861   1.082       .  S
C2851      C2860   1.361       .  A
C2851      C2852   1.380       .  A
C2852      C2853   1.402       .  A
C2852      O2858   1.317       .  A
C2853      C2854   1.401       .  A
C2853      H2862   1.082       .  S
C2854      C2857   1.361       .  A
O2855      C2856   1.330       .  A
C2856      C2857   1.390       .  A
C2857      H2863   1.083       .  S
O2858      C2859   1.331       .  A
C2859      C2860   1.393       .  A
C2860      H2864   1.082       .  S
C2865      C2870   1.377       .  A
C2865      C2866   1.416       .  A
C2865      O2871   1.329       .  A
C2866      C2867   1.416       .  A
C2866      H2877   1.082       .  S
C2867      C2876   1.379       .  A
C2867      C2868   1.379       .  A
C2868      C2869   1.398       .  A
C2868      O2874   1.313       .  A
C2869      C2870   1.397       .  A
C2869      H2878   1.083       .  S
C2870      C2873   1.355       .  A
O2871      C2872   1.339       .  A
C2872      C2873   1.393       .  A
C2873      H2879   1.081       .  S
O2874      C2875   1.330       .  A
C2875      C2876   1.399       .  A
C2876      H2880   1.082       .  S
