geometry optimzed in LAMMPS
_audit_creation_date              2020-11-30 
_audit_creation_method            'lammps2cif' 
_symmetry_space_group_name_H-M    'P1' 
_symmetry_Int_Tables_number       1 
_symmetry_cell_setting            triclinic 
loop_ 
_symmetry_equiv_pos_as_xyz 
  x,y,z 
_cell_length_a                    84.95372449 
_cell_length_b                    82.88914113751139 
_cell_length_c                    82.76529917269075 
_cell_angle_alpha                 89.78753220236692 
_cell_angle_beta                  90.22515339087606 
_cell_angle_gamma                 90.14023256062629 
loop_ 
_atom_site_label 
_atom_site_type_symbol 
_atom_site_fract_x 
_atom_site_fract_y 
_atom_site_fract_z 
_atom_site_charge 
C1          C  0.15309347  0.75310994  0.01981682     0.81900
N2          N  0.15393858  0.74174768  0.00808685    -0.76500
C3          C  0.14309238  0.72973611  0.00740108     0.84300
N4          N  0.13138949  0.72905060  0.01847811    -0.76400
C5          C  0.13048659  0.74036668  0.03024065     0.84400
N6          N  0.14136103  0.75242110  0.03093706    -0.78100
C7          C  0.90693697  0.70799722  0.03370453     0.81900
N8          N  0.89442128  0.69776416  0.03442505    -0.76500
C9          C  0.88241014  0.69927749  0.02362000     0.84300
N10         N  0.88296867  0.71097446  0.01211009    -0.76400
C11         C  0.89544106  0.72120310  0.01139291     0.84400
N12         N  0.90741877  0.71969675  0.02218363    -0.78100
C13         C  0.01668088  0.74150618  0.13781836     0.88100
C14         C  0.03062929  0.74368752  0.12627979    -0.52100
C15         C  0.03321802  0.73059022  0.11670113     0.11000
C16         C  0.02166256  0.71654007  0.11951463     0.22000
C17         C  0.00265156  0.73721032  0.12693327    -0.52800
C18         C  0.00527057  0.72413501  0.11735024     0.11100
C19         C  0.02029769  0.72604561  0.14732622    -0.52400
C20         C  0.02291969  0.71299241  0.13773324     0.11700
H21         H  0.03778340  0.75455829  0.12573092     0.16200
H22         H  0.02378789  0.70588654  0.11171105     0.02000
H23         H  0.99168222  0.74392634  0.12676260     0.16500
H24         H  0.02077517  0.72547189  0.16043937     0.16300
C25         C  0.77658065  0.48426987  0.12534714     0.81900
N26         N  0.77570489  0.49700902  0.11505050    -0.76500
C27         C  0.76321976  0.50717612  0.11562726     0.84300
N28         N  0.75155657  0.50457533  0.12654081    -0.76400
C29         C  0.75242462  0.49180391  0.13686091     0.84400
N30         N  0.76494206  0.48167660  0.13624173    -0.78100
C31         C  0.80619259  0.49592782  0.86682804     0.81900
N32         N  0.79546223  0.48377687  0.86660984    -0.76500
C33         C  0.78399346  0.48314493  0.87794034     0.84300
N34         N  0.78323182  0.49467749  0.88948436    -0.76400
C35         C  0.79394693  0.50683641  0.88973098     0.84400
N36         N  0.80544790  0.50748042  0.87839302    -0.78100
C37         C  0.77473514  0.59360984  0.98748975     0.88100
C38         C  0.75979669  0.60381004  0.98577302    -0.52100
C39         C  0.75679050  0.61312043  0.99896780     0.11000
C40         C  0.76902865  0.61136034  0.01269073     0.22000
C41         C  0.78791951  0.60565673  0.99132223    -0.52800
C42         C  0.78495019  0.61495610  0.00452518     0.11100
C43         C  0.77248395  0.58383905  0.00303709    -0.52400
C44         C  0.76951333  0.59309396  0.01623914     0.11700
H45         H  0.75227881  0.60367432  0.97512143     0.16200
H46         H  0.76660935  0.61891940  0.02345599     0.02000
H47         H  0.79866333  0.60667865  0.98430400     0.16500
H48         H  0.77326371  0.57076025  0.00358448     0.16300
C49         C  0.88923592  0.48344236  0.76679921     0.88100
C50         C  0.90018792  0.46889270  0.76874396    -0.52100
C51         C  0.90895656  0.46586724  0.75533551     0.11000
C52         C  0.90599767  0.47760576  0.74122623     0.22000
C53         C  0.90000700  0.49750473  0.76195235    -0.52800
C54         C  0.90879397  0.49441041  0.74854939     0.11100
C55         C  0.87931827  0.47982185  0.75173147    -0.52400
C56         C  0.88811443  0.47675238  0.73835406     0.11700
H57         H  0.90094706  0.46165631  0.77969459     0.16200
H58         H  0.91316532  0.47509007  0.73031915     0.02000
H59         H  0.90075329  0.50876846  0.76858944     0.16500
H60         H  0.86652706  0.47957696  0.75167038     0.16300
C61         C  0.00915177  0.61058065  0.71365223     0.81900
N62         N  0.99748044  0.59933807  0.71288536    -0.76500
C63         C  0.99726384  0.58688681  0.72362839     0.84300
N64         N  0.00865232  0.58573920  0.73510856    -0.76400
C65         C  0.02028978  0.59693046  0.73588125     0.84400
N66         N  0.02053073  0.60935465  0.72516177    -0.78100
C67         C  0.99776858  0.33859345  0.77648542     0.81900
N68         N  0.01000433  0.33823353  0.76602125    -0.76500
C69         C  0.01172527  0.35006925  0.75482911     0.84300
N70         N  0.00121484  0.36233128  0.75409847    -0.76400
C71         C  0.98895280  0.36274663  0.76454368     0.84400
N72         N  0.98721491  0.35087691  0.77578511    -0.78100
C73         C  0.51346044  0.35441326  0.74751161     0.81900
N74         N  0.51318637  0.34279290  0.73602457    -0.76500
C75         C  0.50205816  0.34310978  0.72422122     0.84300
N76         N  0.49117809  0.35509610  0.72389358    -0.76400
C77         C  0.49147306  0.36674564  0.73539818     0.84400
N78         N  0.50260834  0.36638031  0.74719333    -0.78100
C79         C  0.51552144  0.59105943  0.76994260     0.81900
N80         N  0.50345814  0.58032666  0.77028967    -0.76500
C81         C  0.49218046  0.58144775  0.78178351     0.84300
N82         N  0.49295322  0.59337147  0.79298497    -0.76400
C83         C  0.50504348  0.60414122  0.79266792     0.84400
N84         N  0.51630888  0.60298234  0.78112414    -0.78100
C85         C  0.38371890  0.46689825  0.78040733     0.88100
C86         C  0.39483526  0.45364866  0.77449483    -0.52100
C87         C  0.40375104  0.45826117  0.76159849     0.11000
C88         C  0.40075323  0.47562977  0.75578997     0.22000
C89         C  0.39436293  0.48146396  0.78386867    -0.52800
C90         C  0.40328196  0.48600569  0.77095121     0.11100
C91         C  0.37396388  0.47172952  0.76554136    -0.52400
C92         C  0.38291134  0.47629751  0.75266120     0.11700
H93         H  0.39569000  0.44179139  0.78006889     0.16200
H94         H  0.40804503  0.47934610  0.74528659     0.02000
H95         H  0.39488464  0.48754308  0.79546857     0.16500
H96         H  0.36117585  0.47150576  0.76520785     0.16300
C97         C  0.81108502  0.45149662  0.63644258     0.81900
N98         N  0.81017269  0.43962880  0.62517577    -0.76500
C99         C  0.79747642  0.43883250  0.61514320     0.84300
N100        N  0.78574952  0.44984042  0.61644090    -0.76400
C101        C  0.78668395  0.46165686  0.62769483     0.84400
N102        N  0.79932787  0.46245542  0.63768785    -0.78100
C103        C  0.76111459  0.45817967  0.38033757     0.81900
N104        N  0.74968709  0.45731261  0.36889570    -0.76500
C105        C  0.73871638  0.44540789  0.36949293     0.84300
N106        N  0.73918506  0.43428198  0.38159686    -0.76400
C107        C  0.75064086  0.43514179  0.39309266     0.84400
N108        N  0.76159777  0.44708781  0.39243031    -0.78100
C109        C  0.79077505  0.32762464  0.50194206     0.88100
C110        C  0.78679417  0.33874314  0.48764879    -0.52100
C111        C  0.77456669  0.34894085  0.49065204     0.11000
C112        C  0.76745848  0.34711393  0.50764463     0.22000
C113        C  0.79376612  0.33896257  0.51622557    -0.52800
C114        C  0.78155731  0.34915925  0.51920576     0.11100
C115        C  0.77533193  0.31889057  0.50594591    -0.52400
C116        C  0.76312448  0.32911650  0.50892441     0.11700
H117        H  0.79304900  0.33856974  0.47622447     0.16200
H118        H  0.75751150  0.35543517  0.51007350     0.02000
H119        H  0.80456057  0.33895300  0.52331598     0.16500
H120        H  0.77413437  0.30583934  0.50630676     0.16300
C121        C  0.79022339  0.01204574  0.11291278     0.81900
N122        N  0.80204563  0.01203499  0.12403222    -0.76500
C123        C  0.80282079  0.00010868  0.13531694     0.84300
N124        N  0.79179186  0.98823671  0.13546179    -0.76400
C125        C  0.77999345  0.98822235  0.12437413     0.84400
N126        N  0.77921429  0.00013077  0.11309824    -0.78100
C127        C  0.75647488  0.01111971  0.87958840     0.81900
N128        N  0.76811090  0.99994643  0.87915140    -0.76500
C129        C  0.76810266  0.98846728  0.86751372     0.84300
N130        N  0.75640135  0.98813120  0.85630529    -0.76400
C131        C  0.74473743  0.99929863  0.85670624     0.84400
N132        N  0.74476234  0.01079160  0.86837025    -0.78100
C133        C  0.76835092  0.09470839  0.98159161     0.88100
C134        C  0.75463842  0.10586911  0.98590126    -0.52100
C135        C  0.75733219  0.11483816  0.99943701     0.11000
C136        C  0.77350137  0.11184096  0.00740520     0.22000
C137        C  0.78275923  0.10578027  0.98023244    -0.52800
C138        C  0.78547355  0.11473378  0.99375786     0.11100
C139        C  0.77126905  0.08452210  0.99679555    -0.52400
C140        C  0.77397473  0.09348932  0.01030432     0.11700
H141        H  0.74378463  0.10656549  0.97894656     0.16200
H142        H  0.77571253  0.11913483  0.01842744     0.02000
H143        H  0.79023001  0.10636769  0.96961669     0.16500
H144        H  0.77124880  0.07141010  0.99686790     0.16300
C145        C  0.52646174  0.73808551  0.87010265     0.88100
C146        C  0.51183632  0.74086456  0.88050420    -0.52100
C147        C  0.50802925  0.72798018  0.89002780     0.11000
C148        C  0.51921430  0.71346810  0.88829311     0.22000
C149        C  0.53952016  0.73339762  0.88205280    -0.52800
C150        C  0.53573050  0.72048372  0.89156586     0.11100
C151        C  0.52294886  0.72268368  0.86055344    -0.52400
C152        C  0.51918021  0.70978842  0.87006667     0.11700
H153        H  0.50506968  0.75197324  0.88030848     0.16200
H154        H  0.51612600  0.70296034  0.89604554     0.02000
H155        H  0.55073730  0.73967278  0.88289015     0.16500
H156        H  0.52351173  0.72199665  0.84745741     0.16300
C157        C  0.62819224  0.69982883  0.98117154     0.81900
N158        N  0.64035762  0.68918701  0.98113557    -0.76500
C159        C  0.65181932  0.69021148  0.99261204     0.84300
N160        N  0.65111007  0.70189630  0.00403406    -0.76400
C161        C  0.63898758  0.71252233  0.00407837     0.84400
N162        N  0.62755552  0.71149666  0.99263021    -0.78100
C163        C  0.39288266  0.71962691  0.99095928     0.81900
N164        N  0.40449900  0.72064696  0.97979968    -0.76500
C165        C  0.40463712  0.73296750  0.96894342     0.84300
N166        N  0.39314395  0.74434954  0.96930701    -0.76400
C167        C  0.38150114  0.74331619  0.98049299     0.84400
N168        N  0.38142252  0.73097845  0.99131530    -0.78100
C169        C  0.53668452  0.10700336  0.71593043     0.81900
N170        N  0.52474907  0.10694038  0.72679209    -0.76500
C171        C  0.52368848  0.09496329  0.73795870     0.84300
N172        N  0.53457933  0.08301641  0.73825783    -0.76400
C173        C  0.54653008  0.08303161  0.72741373     0.84400
N174        N  0.54758769  0.09503506  0.71623545    -0.78100
C175        C  0.65656849  0.97935998  0.76147307     0.88100
C176        C  0.64465657  0.99262626  0.75738065    -0.52100
C177        C  0.63457517  0.98856859  0.74517811     0.11000
C178        C  0.63733238  0.97163691  0.73814946     0.22000
C179        C  0.64661155  0.96433309  0.76513211    -0.52800
C180        C  0.63653279  0.96030314  0.75291380     0.11100
C181        C  0.66488700  0.97567408  0.74551460    -0.52400
C182        C  0.65481928  0.97162589  0.73329693     0.11700
H183        H  0.64414952  0.00411500  0.76363785     0.16200
H184        H  0.62911117  0.96834578  0.72820926     0.02000
H185        H  0.64740471  0.95755096  0.77636587     0.16500
H186        H  0.67758189  0.97618014  0.74401599     0.16300
C187        C  0.54440401  0.83553389  0.78194148     0.81900
N188        N  0.55578452  0.84707490  0.78109629    -0.76500
C189        C  0.55547518  0.85815148  0.76893196     0.84300
N190        N  0.54379198  0.85768409  0.75771108    -0.76400
C191        C  0.53244686  0.84618005  0.75857232     0.84400
N192        N  0.53275470  0.83512989  0.77068511    -0.78100
C193        C  0.03292213  0.08182990  0.76890770     0.81900
N194        N  0.04501927  0.07123137  0.76982745    -0.76500
C195        C  0.05615646  0.07280704  0.78151948     0.84300
N196        N  0.05522213  0.08509053  0.79232743    -0.76400
C197        C  0.04306814  0.09571583  0.79140772     0.84400
N198        N  0.03196918  0.09406894  0.77968151    -0.78100
C199        C  0.05369111  0.86027168  0.72562842     0.81900
N200        N  0.05430095  0.84828934  0.71448092    -0.76500
C201        C  0.04307320  0.83657386  0.71435953     0.84300
N202        N  0.03128817  0.83685477  0.72539775    -0.76400
C203        C  0.03068953  0.84881764  0.73653050     0.84400
N204        N  0.04190259  0.86049229  0.73664141    -0.78100
C205        C  0.16433874  0.97189976  0.73437189     0.88100
C206        C  0.15281501  0.95817713  0.73051943    -0.52100
C207        C  0.14291590  0.95458478  0.74295944     0.11000
C208        C  0.14545975  0.96498485  0.75812244     0.22000
C209        C  0.15397604  0.98611585  0.73949485    -0.52800
C210        C  0.14409934  0.98245601  0.75195376     0.11100
C211        C  0.17292564  0.96658269  0.74980883    -0.52400
C212        C  0.16302577  0.96298931  0.76225004     0.11700
H213        H  0.15243359  0.95195761  0.71898836     0.16200
H214        H  0.13739229  0.96204463  0.76826164     0.02000
H215        H  0.15439035  0.99794187  0.73380149     0.16500
H216        H  0.18566171  0.96590307  0.75086870     0.16300
C217        C  0.16449524  0.69286896  0.52241631     0.81900
N218        N  0.16495398  0.70477594  0.51111716    -0.76500
C219        C  0.15401329  0.71666585  0.51118082     0.84300
N220        N  0.14254567  0.71662727  0.52253589    -0.76400
C221        C  0.14201331  0.70476834  0.53387868     0.84400
N222        N  0.15298869  0.69283525  0.53381334    -0.78100
C223        C  0.89395347  0.73225183  0.50391160     0.81900
N224        N  0.90552874  0.73273522  0.51523301    -0.76500
C225        C  0.90574648  0.74462266  0.52647102     0.84300
N226        N  0.89431252  0.75609103  0.52637833    -0.76400
C227        C  0.88270354  0.75561628  0.51501142     0.84400
N228        N  0.88255464  0.74368421  0.50381772    -0.78100
C229        C  0.00807816  0.72866705  0.60666143     0.88100
C230        C  0.00609522  0.71405046  0.61789096    -0.52100
C231        C  0.01901764  0.71101755  0.62724855     0.11000
C232        C  0.03277331  0.72284231  0.62450101     0.22000
C233        C  0.01257523  0.74267628  0.61782484    -0.52800
C234        C  0.02549757  0.73961511  0.62717555     0.11100
C235        C  0.02295642  0.72517337  0.59684619    -0.52400
C236        C  0.03589646  0.72212508  0.60618599     0.11700
H237        H  0.99540433  0.70685286  0.61850080     0.16200
H238        H  0.04329237  0.72036529  0.63213369     0.02000
H239        H  0.00605763  0.75392265  0.61839749     0.16500
H240        H  0.02324164  0.72514014  0.58372143     0.16300
C241        C  0.74825875  0.82873346  0.49898444     0.88100
C242        C  0.74683713  0.84059807  0.51307788    -0.52100
C243        C  0.75968967  0.85034780  0.51488897     0.11000
C244        C  0.77283395  0.84726559  0.50252002     0.22000
C245        C  0.75170153  0.83929552  0.48414532    -0.52800
C246        C  0.76456225  0.84901072  0.48603936     0.11100
C247        C  0.76351829  0.81940793  0.50218527    -0.52400
C248        C  0.77640172  0.82909506  0.50399566     0.11700
H249        H  0.73648684  0.84145644  0.52069671     0.16200
H250        H  0.78330078  0.85520326  0.50399678     0.02000
H251        H  0.74451700  0.83926689  0.47325424     0.16500
H252        H  0.76411917  0.80632330  0.50276074     0.16300
C253        C  0.75569056  0.96418266  0.62314841     0.81900
N254        N  0.75675838  0.95320517  0.61109431    -0.76500
C255        C  0.74520745  0.94207471  0.60893986     0.84300
N256        N  0.73252978  0.94189685  0.61893666    -0.76400
C257        C  0.73144706  0.95291526  0.63102406     0.84400
N258        N  0.74305366  0.96401432  0.63311567    -0.78100
C259        C  0.78392100  0.93990773  0.39186369     0.81900
N260        N  0.77261405  0.95145531  0.39170767    -0.76500
C261        C  0.77250077  0.96289278  0.37993906     0.84300
N262        N  0.78369495  0.96277021  0.36830027    -0.76400
C263        C  0.79501483  0.95124430  0.36840507     0.84400
N264        N  0.79513391  0.93978653  0.38019387    -0.78100
C265        C  0.64948122  0.74348524  0.48624973     0.81900
N266        N  0.64961255  0.73152211  0.49749555    -0.76500
C267        C  0.63846985  0.71977651  0.49713659     0.84300
N268        N  0.62718610  0.71997346  0.48550449    -0.76400
C269        C  0.62699848  0.73190999  0.47423915     0.84400
N270        N  0.63817062  0.74367803  0.47458286    -0.78100
C271        C  0.38298895  0.69482200  0.47498307     0.81900
N272        N  0.38342957  0.70660592  0.48632973    -0.76500
C273        C  0.39543418  0.71742938  0.48649600     0.84300
N274        N  0.40703327  0.71644962  0.47534441    -0.76400
C275        C  0.40665282  0.70469692  0.46398848     0.84400
N276        N  0.39463384  0.69383693  0.46380762    -0.78100
C277        C  0.52534023  0.69253993  0.36193802     0.88100
C278        C  0.53873130  0.69617670  0.37387121    -0.52100
C279        C  0.53590002  0.70924223  0.38339066     0.11000
C280        C  0.51999927  0.71747431  0.38013526     0.22000
C281        C  0.51055735  0.69077466  0.37239350    -0.52800
C282        C  0.50779311  0.70386088  0.38191722     0.11100
C283        C  0.52295902  0.70824249  0.35237415    -0.52400
C284        C  0.52016955  0.72128650  0.36194228     0.11700
H285        H  0.54944141  0.68907883  0.37473027     0.16200
H286        H  0.51772727  0.72811922  0.38790888     0.02000
H287        H  0.50300674  0.68017509  0.37230165     0.16500
H288        H  0.52348703  0.70899166  0.33927684     0.16300
C289        C  0.39015437  0.18814951  0.52406182     0.81900
N290        N  0.38960836  0.20012446  0.51283452    -0.76500
C291        C  0.40064168  0.21198080  0.51289618     0.84300
N292        N  0.41223865  0.21186447  0.52420284    -0.76400
C293        C  0.41284017  0.19992113  0.53544826     0.84400
N294        N  0.40178004  0.18803884  0.53539865    -0.78100
C295        C  0.51916563  0.24269173  0.64026845     0.88100
C296        C  0.53328171  0.24546691  0.62911753    -0.52100
C297        C  0.53662542  0.23252728  0.61960474     0.11000
C298        C  0.52557167  0.21797749  0.62212539     0.22000
C299        C  0.50558345  0.23784435  0.62903891    -0.52800
C300        C  0.50894655  0.22489166  0.61955240     0.11100
C301        C  0.52312065  0.22738421  0.64989144    -0.52400
C302        C  0.52645210  0.21443537  0.64038440     0.11700
H303        H  0.53995990  0.25665895  0.62870697     0.16200
H304        H  0.52828151  0.20742849  0.61437538     0.02000
H305        H  0.49432986  0.24404214  0.62865411     0.16500
H306        H  0.52309852  0.22678217  0.66301005     0.16300
C307        C  0.64560268  0.23471099  0.51024961     0.81900
N308        N  0.65695697  0.24622770  0.51094573    -0.76500
C309        C  0.65679577  0.25740069  0.52289961     0.84300
N310        N  0.64523195  0.25704118  0.53420702    -0.76400
C311        C  0.63385291  0.24549725  0.53350599     0.84400
N312        N  0.63406697  0.23435921  0.52152888    -0.78100
C313        C  0.24870844  0.99735652  0.63734335     0.81900
N314        N  0.24833772  0.00926615  0.62600777    -0.76500
C315        C  0.26011491  0.01043758  0.61498234     0.84300
N316        N  0.27214829  0.99971399  0.61528782    -0.76400
C317        C  0.27248577  0.98786794  0.62660848     0.84400
N318        N  0.26076633  0.98667523  0.63759845    -0.78100
C319        C  0.25861333  0.11516616  0.49448451     0.88100
C320        C  0.26330632  0.10393996  0.48065965    -0.52100
C321        C  0.27573936  0.09420452  0.48436437     0.11000
C322        C  0.28233898  0.09656319  0.50154918     0.22000
C323        C  0.25556770  0.10401448  0.50896084    -0.52800
C324        C  0.26801131  0.09430041  0.51265968     0.11100
C325        C  0.27366230  0.12447229  0.49882350    -0.52400
C326        C  0.28607610  0.11470585  0.50253702     0.11700
H327        H  0.25733476  0.10367950  0.46902723     0.16200
H328        H  0.29246133  0.08862019  0.50457314     0.02000
H329        H  0.24463714  0.10389579  0.51573799     0.16500
H330        H  0.27442524  0.13755908  0.49898472     0.16300
C331        C  0.16003338  0.19924602  0.48122354     0.81900
N332        N  0.16120578  0.21117967  0.49234185    -0.76500
C333        C  0.14988212  0.22263876  0.49328242     0.84300
N334        N  0.13732737  0.22215150  0.48310140    -0.76400
C335        C  0.13611359  0.21021991  0.47196189     0.84400
N336        N  0.14747591  0.19875295  0.47102275    -0.78100
N337        N  0.17312777  0.37991477  0.64088285    -0.25700
N338        N  0.17992260  0.37407222  0.62779565    -0.33500
C339        C  0.19251750  0.38321407  0.62414273     0.02700
C340        C  0.19363491  0.39532569  0.63545620     0.08700
C341        C  0.18122968  0.39294870  0.64590884    -0.15600
H342        H  0.20030897  0.38111890  0.61405893     0.09400
H343        H  0.17834388  0.40006115  0.65642071     0.10600
Cu344      Cu  0.17202757  0.35386912  0.61549465     0.44200
Cu345      Cu  0.15331618  0.36978992  0.65142475     0.42000
Cu346      Cu  0.13798008  0.33382617  0.63205436     0.43900
N347        N  0.16191025  0.33351555  0.60531780    -0.33000
N348        N  0.14942591  0.32617002  0.61141973    -0.27300
C349        C  0.14566064  0.31350001  0.60205409    -0.03400
C350        C  0.15630136  0.31290564  0.58953088     0.08800
C351        C  0.16644227  0.32571439  0.59189226     0.02600
H352        H  0.13587209  0.30540036  0.60418219     0.10300
H353        H  0.17631883  0.32916630  0.58441199     0.09300
N354        N  0.12816824  0.34408495  0.65243640    -0.34500
N355        N  0.13372441  0.35722377  0.65950140    -0.26700
C356        C  0.12455525  0.36084566  0.67219181    -0.01900
C357        C  0.11276324  0.34941566  0.67308266     0.06700
C358        C  0.11532280  0.33899015  0.66043109     0.04800
H359        H  0.12628198  0.37110231  0.68005702     0.09900
H360        H  0.10831044  0.32857997  0.65715755     0.08700
N361        N  0.39508242  0.83178625  0.59469925    -0.25700
N362        N  0.40801792  0.82536496  0.60090581    -0.33500
C363        C  0.41239307  0.81277928  0.59175733     0.02700
C364        C  0.40169653  0.81129192  0.57927220     0.08700
C365        C  0.39086970  0.82345121  0.58144879    -0.04400
H366        H  0.42251133  0.80521664  0.59412715     0.09400
H367        H  0.38065310  0.82601966  0.57403546     0.10600
Cu368      Cu  0.41896185  0.83364615  0.62173699     0.44200
Cu369      Cu  0.38366217  0.85149144  0.60450045     0.42000
Cu370      Cu  0.40094484  0.86766551  0.64117103     0.43900
N371        N  0.42693646  0.84325733  0.64337843    -0.33000
N372        N  0.42025324  0.85571896  0.65052017    -0.27300
C373        C  0.42799587  0.85896021  0.66433626    -0.03400
C374        C  0.44007643  0.84798896  0.66589349     0.08800
C375        C  0.43914464  0.83821597  0.65246477     0.02600
H376        H  0.42503533  0.86857644  0.67258355     0.10300
H377        H  0.44672777  0.82819104  0.64951028     0.09300
N378        N  0.38159054  0.87751648  0.62969048    -0.34500
N379        N  0.37519404  0.87163050  0.61635061    -0.26700
C380        C  0.36284527  0.88086036  0.61208523    -0.01900
C381        C  0.36153518  0.89303828  0.62330128     0.06700
C382        C  0.37352446  0.89063243  0.63427774     0.04800
H383        H  0.35544924  0.87886221  0.60160536     0.09900
H384        H  0.37622217  0.89784975  0.64480283     0.08700
C385        C  0.24278711  0.49308193  0.36494558     0.81900
N386        N  0.24299959  0.50574831  0.37534613    -0.76500
C387        C  0.25474338  0.50705190  0.38648409     0.84300
N388        N  0.26621469  0.49568869  0.38719980    -0.76400
C389        C  0.26600348  0.48305453  0.37682226     0.84400
N390        N  0.25429640  0.48177199  0.36570612    -0.78100
C391        C  0.27959368  0.58662824  0.51720344     0.88100
C392        C  0.29280008  0.59835157  0.51251212    -0.52100
C393        C  0.28906131  0.60803004  0.49970273     0.11000
C394        C  0.27244505  0.60512065  0.49275554     0.22000
C395        C  0.26517419  0.59726639  0.52017573    -0.52800
C396        C  0.26142352  0.60695985  0.50738850     0.11100
C397        C  0.27579682  0.57726222  0.50173337    -0.52400
C398        C  0.27206798  0.58694334  0.48891611     0.11700
H399        H  0.30407177  0.59894590  0.51873808     0.16200
H400        H  0.26940676  0.61302035  0.48232802     0.02000
H401        H  0.25857670  0.59720453  0.53139903     0.16500
H402        H  0.27609683  0.56418157  0.50095930     0.16300
C403        C  0.31158890  0.49651243  0.64511138     0.81900
N404        N  0.30008285  0.48514517  0.64571094    -0.76500
C405        C  0.28876511  0.48471489  0.63413112     0.84300
N406        N  0.28892329  0.49568035  0.62194253    -0.76400
C407        C  0.30040112  0.50707190  0.62129028     0.84400
N408        N  0.31175968  0.50752247  0.63289737    -0.78100
C409        C  0.03640562  0.60692009  0.21379848     0.81900
N410        N  0.02417161  0.60713704  0.22429183    -0.76500
C411        C  0.02318776  0.59588524  0.23618640     0.84300
N412        N  0.03448624  0.58441835  0.23762159    -0.76400
C413        C  0.04674291  0.58417431  0.22714736     0.84400
N414        N  0.04772229  0.59545090  0.21523712    -0.78100
C415        C  0.13432562  0.48948203  0.25049402     0.88100
C416        C  0.14580223  0.49256881  0.26451134    -0.52100
C417        C  0.15513576  0.47963124  0.26803179     0.11000
C418        C  0.15216970  0.46484980  0.25723645     0.22000
C419        C  0.14466352  0.48420055  0.23632257    -0.52800
C420        C  0.15399051  0.47128179  0.23988616     0.11100
C421        C  0.12509081  0.47433773  0.25539160    -0.52400
C422        C  0.13445612  0.46145637  0.25890346     0.11700
H423        H  0.14646259  0.50388903  0.27105899     0.16200
H424        H  0.15977867  0.45432140  0.26010009     0.02000
H425        H  0.14459708  0.49009281  0.22457268     0.16500
H426        H  0.11231841  0.47380557  0.25590581     0.16300
C427        C  0.23963652  0.43987697  0.14739128     0.81900
N428        N  0.25127742  0.45111749  0.14755010    -0.76500
C429        C  0.26286867  0.45064791  0.13634777     0.84300
N430        N  0.26280740  0.43895237  0.12493686    -0.76400
C431        C  0.25119433  0.42768639  0.12473114     0.84400
N432        N  0.23956627  0.42814752  0.13595584    -0.78100
N433        N  0.42423381  0.58933056  0.14429445    -0.25700
N434        N  0.41838808  0.57593451  0.15063011    -0.33500
C435        C  0.42779886  0.57099009  0.16277573     0.02700
C436        C  0.44009818  0.58180680  0.16407961     0.08700
C437        C  0.43753188  0.59328714  0.15224776    -0.04400
H438        H  0.42572985  0.56041815  0.17018362     0.09400
H439        H  0.44469682  0.60378954  0.14967484     0.10600
Cu440      Cu  0.39763812  0.56531518  0.14280715     0.44200
Cu441      Cu  0.41365429  0.60169746  0.12533119     0.42000
Cu442      Cu  0.37568485  0.58660876  0.11172385     0.43900
N443        N  0.37590365  0.55787182  0.13416443    -0.33000
N444        N  0.36778523  0.56569236  0.12294387    -0.27300
C445        C  0.35419186  0.55776947  0.12020265    -0.03400
C446        C  0.35384420  0.54440117  0.13018052     0.08800
C447        C  0.36772168  0.54477268  0.13885306     0.02600
H448        H  0.34529846  0.56144373  0.11155769     0.10300
H449        H  0.37160590  0.53619304  0.14790198     0.09300
N450        N  0.38695280  0.60643326  0.10160547    -0.34500
N451        N  0.40081842  0.61187105  0.10652669    -0.26700
C452        C  0.40498881  0.62456974  0.09730727    -0.01900
C453        C  0.39317848  0.62719317  0.08613020     0.06700
C454        C  0.38192943  0.61553839  0.08912318     0.04800
H455        H  0.41585896  0.63128295  0.09858582     0.09900
H456        H  0.37099409  0.61368853  0.08263609     0.08700
N457        N  0.87111269  0.56814739  0.36495476    -0.25700
N458        N  0.86545712  0.57451585  0.37836729    -0.33500
C459        C  0.85286499  0.56589606  0.38316637     0.02700
C460        C  0.85053367  0.55358533  0.37224462     0.08700
C461        C  0.86225349  0.55529758  0.36086243    -0.04400
H462        H  0.84593284  0.56844166  0.39379202     0.09400
H463        H  0.86420950  0.54780048  0.35038953     0.10600
Cu464      Cu  0.87491160  0.59472411  0.38952780     0.44200
Cu465      Cu  0.89055254  0.57726018  0.35278055     0.42000
Cu466      Cu  0.90820273  0.61334472  0.36987102     0.43900
N467        N  0.88578587  0.61552986  0.39789105    -0.33000
N468        N  0.89796103  0.62238433  0.39066241    -0.27300
C469        C  0.90217008  0.63567905  0.39892329    -0.03400
C470        C  0.89215476  0.63718286  0.41191532     0.08800
C471        C  0.88191702  0.62426970  0.41095195     0.02600
H472        H  0.91177888  0.64363434  0.39568498     0.10300
H473        H  0.87235038  0.62143925  0.41908419     0.09300
N474        N  0.91627192  0.60217841  0.34910618    -0.34500
N475        N  0.90986949  0.58902165  0.34285790    -0.26700
C476        C  0.91786028  0.58492478  0.32947701    -0.01900
C477        C  0.92978101  0.59605109  0.32727776     0.06700
C478        C  0.92849300  0.60680142  0.33987852     0.04800
H479        H  0.91518038  0.57462510  0.32194878     0.09900
H480        H  0.93587345  0.61720096  0.34220099     0.08700
C481        C  0.54396142  0.32862556  0.22495010     0.81900
N482        N  0.53278823  0.32978719  0.23659072    -0.76500
C483        C  0.53378980  0.34153648  0.24793937     0.84300
N484        N  0.54595721  0.35215600  0.24762423    -0.76400
C485        C  0.55715341  0.35107247  0.23603116     0.84400
N486        N  0.55615201  0.33930457  0.22465407    -0.78100
C487        C  0.66673371  0.46479146  0.23275156     0.88100
C488        C  0.65590179  0.45014759  0.23032798    -0.52100
C489        C  0.64632548  0.44713658  0.24321099     0.11000
C490        C  0.64849404  0.45899733  0.25734041     0.22000
C491        C  0.65567328  0.47880221  0.23676342    -0.52800
C492        C  0.64612327  0.47575137  0.24963790     0.11100
C493        C  0.67574417  0.46134925  0.24845944    -0.52400
C494        C  0.66620317  0.45833117  0.26133531     0.11700
H495        H  0.65570649  0.44293700  0.21939235     0.16200
H496        H  0.64070479  0.45654878  0.26783017     0.02000
H497        H  0.65535462  0.49005657  0.22999554     0.16500
H498        H  0.68851059  0.46144410  0.24935886     0.16300
C499        C  0.55746867  0.56947071  0.26670033     0.81900
N500        N  0.54629778  0.56918227  0.25491433    -0.76500
C501        C  0.53472235  0.58043917  0.25468519     0.84300
N502        N  0.53430466  0.59196464  0.26625817    -0.76400
C503        C  0.54543666  0.59230163  0.27805066     0.84400
N504        N  0.55703269  0.58103578  0.27829457    -0.78100
C505        C  0.48341663  0.08580736  0.23196734     0.81900
N506        N  0.49427178  0.08543893  0.24404164    -0.76500
C507        C  0.50651482  0.09596349  0.24398008     0.84300
N508        N  0.50792527  0.10687255  0.23182524    -0.76400
C509        C  0.49712573  0.10729653  0.21971172     0.84400
N510        N  0.48483031  0.09674928  0.21976205    -0.78100
C511        C  0.66167613  0.19766229  0.02961616     0.81900
N512        N  0.66085317  0.20947854  0.01825105    -0.76500
C513        C  0.64905985  0.22045692  0.01865024     0.84300
N514        N  0.63803321  0.21961949  0.03042066    -0.76400
C515        C  0.63877252  0.20784323  0.04183234     0.84400
N516        N  0.65060063  0.19680358  0.04143295    -0.78100
C517        C  0.50405469  0.22351130  0.11229795     0.88100
C518        C  0.50211744  0.20883873  0.12343816    -0.52100
C519        C  0.51453753  0.20652221  0.13366546     0.11000
C520        C  0.52781702  0.21908102  0.13180498     0.22000
C521        C  0.50708160  0.23779011  0.12367061    -0.52800
C522        C  0.51953872  0.23545583  0.13389373     0.11100
C523        C  0.51969239  0.22082744  0.10354681    -0.52400
C524        C  0.53214318  0.21852770  0.11374860     0.11700
H525        H  0.49181175  0.20104468  0.12332902     0.16200
H526        H  0.53794598  0.21718382  0.14013083     0.02000
H527        H  0.49999988  0.24868734  0.12368842     0.16500
H528        H  0.52083187  0.22080951  0.09047330     0.16300
N529        N  0.63861394  0.32919788  0.90404516    -0.25700
N530        N  0.65159325  0.33546671  0.91031359    -0.33500
C531        C  0.65553664  0.32711658  0.92369122     0.02700
C532        C  0.64448583  0.31509291  0.92587055     0.08700
C533        C  0.63394017  0.31668225  0.91325644    -0.04400
H534        H  0.66576818  0.32952351  0.93113575     0.09400
H535        H  0.62373119  0.30922950  0.91083919     0.10600
Cu536      Cu  0.66356353  0.35475814  0.90012358     0.44200
Cu537      Cu  0.62807903  0.33772131  0.88308502     0.42000
Cu538      Cu  0.64789812  0.37060701  0.86246692     0.43900
N539        N  0.67393373  0.37334377  0.88714988    -0.33000
N540        N  0.66826704  0.37909326  0.87337839    -0.27300
C541        C  0.67776915  0.39096379  0.86805334    -0.03400
C542        C  0.68991986  0.39267426  0.87901353     0.08800
C543        C  0.68718790  0.38139717  0.89096484     0.02600
H544        H  0.67593693  0.39781239  0.85705338     0.10300
H545        H  0.69428087  0.37917610  0.90162626     0.09300
N546        N  0.62718399  0.36014380  0.85431730    -0.34500
N547        N  0.61994992  0.34815622  0.86186522    -0.26700
C548        C  0.60687232  0.34417866  0.85356704    -0.01900
C549        C  0.60590916  0.35414493  0.84022954     0.06700
C550        C  0.61890217  0.36412149  0.84100628     0.04800
H551        H  0.59869968  0.33475668  0.85701741     0.09900
H552        H  0.62210519  0.37357344  0.83257831     0.08700
N553        N  0.64988141  0.12085707  0.40128071    -0.25700
N554        N  0.63752084  0.12777321  0.39440476    -0.33500
C555        C  0.63407993  0.14140273  0.40242633     0.02700
C556        C  0.64479523  0.14307641  0.41487996     0.08700
C557        C  0.65463046  0.12989812  0.41387065    -0.04400
H558        H  0.62442273  0.14939052  0.39948067     0.09400
H559        H  0.66444194  0.12702160  0.42173434     0.10600
Cu560      Cu  0.62567412  0.11819774  0.37467299     0.44200
Cu561      Cu  0.65966330  0.09938307  0.39334369     0.42000
Cu562      Cu  0.64117471  0.08079699  0.35861476     0.43900
N563        N  0.61544485  0.10569733  0.35565733    -0.33000
N564        N  0.62110203  0.09206210  0.34980714    -0.27300
C565        C  0.61170676  0.08697894  0.33772218    -0.03400
C566        C  0.59962995  0.09794220  0.33595608     0.08800
C567        C  0.60229458  0.10965194  0.34745208     0.02600
H568        H  0.61351714  0.07608860  0.33081232     0.10300
H569        H  0.59519876  0.12021465  0.34974929     0.09300
N570        N  0.66095752  0.07149832  0.37006033    -0.34500
N571        N  0.66766076  0.07825259  0.38281796    -0.26700
C572        C  0.68014410  0.06934001  0.38736760    -0.01900
C573        C  0.68129198  0.05643136  0.37696526     0.06700
C574        C  0.66900531  0.05811256  0.36613849     0.04800
H575        H  0.68782481  0.07210728  0.39744712     0.09900
H576        H  0.66612194  0.05023837  0.35615180     0.08700
C577        C  0.89177234  0.24563249  0.49065455     0.81900
N578        N  0.89238983  0.23395279  0.50218286    -0.76500
C579        C  0.90426295  0.22303094  0.50219294     0.84300
N580        N  0.91553126  0.22377883  0.49063868    -0.76400
C581        C  0.91496683  0.23544336  0.47909130     0.84400
N582        N  0.90306712  0.24637719  0.47908531    -0.78100
N583        N  0.90982679  0.11024060  0.61377443    -0.25700
N584        N  0.89581596  0.10602827  0.60815898    -0.33500
C585        C  0.89183505  0.11598676  0.59594108     0.02700
C586        C  0.90393123  0.12692372  0.59382266     0.08700
C587        C  0.91515382  0.12299704  0.60527482    -0.04400
H588        H  0.88097051  0.11527430  0.58911165     0.09400
H589        H  0.92633838  0.12894054  0.60730222     0.10600
Cu590      Cu  0.88287666  0.08683699  0.61732035     0.44200
Cu591      Cu  0.92090368  0.09841912  0.63279134     0.42000
Cu592      Cu  0.90027173  0.06420492  0.65054491     0.43900
N593        N  0.87243366  0.06678923  0.62790046    -0.33000
N594        N  0.87875134  0.05847350  0.63996006    -0.27300
C595        C  0.86904615  0.04620547  0.64386043    -0.03400
C596        C  0.85608159  0.04692767  0.63377637     0.08800
C597        C  0.85856431  0.06005179  0.62381466     0.02600
H598        H  0.87128729  0.03743810  0.65330537     0.10300
H599        H  0.85090528  0.06437858  0.61427183     0.09300
N600        N  0.92172192  0.07293431  0.65900752    -0.34500
N601        N  0.92919880  0.08536367  0.65248013    -0.26700
C602        C  0.94250155  0.08817628  0.66088456    -0.01900
C603        C  0.94341185  0.07698741  0.67321847     0.06700
C604        C  0.93009247  0.06751776  0.67176325     0.04800
H605        H  0.95076704  0.09779276  0.65831634     0.09900
H606        H  0.92662939  0.05757390  0.67948539     0.08700
N607        N  0.90255057  0.32953270  0.10301257    -0.25700
N608        N  0.91428210  0.32241042  0.11079316    -0.33500
C609        C  0.91820973  0.30883474  0.10291416     0.02700
C610        C  0.90847874  0.30741334  0.08960571     0.08700
C611        C  0.89870003  0.32067424  0.08998012    -0.04400
H612        H  0.92752337  0.30069947  0.10655411     0.09400
H613        H  0.88954996  0.32374130  0.08138014     0.10600
Cu614      Cu  0.92467424  0.33161717  0.13155998     0.44200
Cu615      Cu  0.89250556  0.35114221  0.11022435     0.42000
Cu616      Cu  0.91074292  0.37071933  0.14455830     0.43900
N617        N  0.93364833  0.34381321  0.15144363    -0.33000
N618        N  0.92861720  0.35815128  0.15609916    -0.27300
C619        C  0.93681347  0.36278784  0.16923146    -0.03400
C620        C  0.94745063  0.35078562  0.17295466     0.08800
C621        C  0.94518787  0.33893437  0.16150684     0.02600
H622        H  0.93511452  0.37403423  0.17557987     0.10300
H623        H  0.95145261  0.32763277  0.16052459     0.09300
N624        N  0.89181167  0.38027382  0.13193327    -0.34500
N625        N  0.88505104  0.37308356  0.11945128    -0.26700
C626        C  0.87290745  0.38216033  0.11427824    -0.01900
C627        C  0.87209238  0.39565044  0.12395962     0.06700
C628        C  0.88417342  0.39411261  0.13503300     0.04800
H629        H  0.86518343  0.37907322  0.10432830     0.09900
H630        H  0.88708570  0.40230267  0.14475237     0.08700
C631        C  0.04681540  0.33588418  0.29327100     0.81900
N632        N  0.03518950  0.33640338  0.28197527    -0.76500
C633        C  0.03588508  0.34729712  0.26972385     0.84300
N634        N  0.04821817  0.35765997  0.26875458    -0.76400
C635        C  0.05986878  0.35715888  0.28000003     0.84400
N636        N  0.05917818  0.34627198  0.29229118    -0.78100
C637        C  0.01769578  0.20263703  0.36757002     0.88100
C638        C  0.03200982  0.19978566  0.37857620    -0.52100
C639        C  0.03515607  0.21241812  0.38862555     0.11000
C640        C  0.02375021  0.22670204  0.38677450     0.22000
C641        C  0.00413370  0.20659891  0.37903977    -0.52800
C642        C  0.00731987  0.21919325  0.38910480     0.11100
C643        C  0.02124665  0.21845287  0.35862822    -0.52400
C644        C  0.02444390  0.23104090  0.36869826     0.11700
H645        H  0.03901422  0.18883731  0.37841585     0.16200
H646        H  0.02634565  0.23696843  0.39497390     0.02000
H647        H  0.99307854  0.19998038  0.37927289     0.16500
H648        H  0.02136938  0.21956509  0.34554179     0.16300
C649        C  0.29996341  0.44305776  0.87795236     0.81900
N650        N  0.29968237  0.43144452  0.88957756    -0.76500
C651        C  0.28784383  0.43117867  0.90057040     0.84300
N652        N  0.27633723  0.44249806  0.89992118    -0.76400
C653        C  0.27662552  0.45408440  0.88831456     0.84400
N654        N  0.28843828  0.45435682  0.87734441    -0.78100
N655        N  0.12160660  0.59730803  0.85511097    -0.25700
N656        N  0.12754868  0.58371775  0.84946629    -0.33500
C657        C  0.11919271  0.57912114  0.83641411     0.02700
C658        C  0.10749025  0.59036140  0.83380771     0.08700
C659        C  0.10931816  0.60172947  0.84580670    -0.04400
H660        H  0.12151494  0.56843754  0.82934835     0.09400
H661        H  0.10229267  0.61243453  0.84763630     0.10600
Cu662      Cu  0.14680177  0.57212934  0.85972074     0.44200
Cu663      Cu  0.13048690  0.60924816  0.87516136     0.42000
Cu664      Cu  0.16438940  0.59129374  0.89480820     0.43900
N665        N  0.16612451  0.56295925  0.87210013    -0.33000
N666        N  0.17254868  0.56997869  0.88486719    -0.27300
C667        C  0.18476577  0.56102945  0.89005899    -0.03400
C668        C  0.18602203  0.54780993  0.88008164     0.08800
C669        C  0.17408654  0.54934551  0.86883213     0.02600
H670        H  0.19212973  0.56392822  0.90034766     0.10300
H671        H  0.17135603  0.54119546  0.85902561     0.09300
N672        N  0.15363438  0.61223948  0.90273061    -0.34500
N673        N  0.14124232  0.61877901  0.89554994    -0.26700
C674        C  0.13706809  0.63214648  0.90362758    -0.01900
C675        C  0.14733175  0.63403805  0.91643584     0.06700
C676        C  0.15768096  0.62127340  0.91557676     0.04800
H677        H  0.12728813  0.63987026  0.90040811     0.09900
H678        H  0.16740050  0.61870629  0.92366642     0.08700
N679        N  0.37088681  0.06244149  0.86411909    -0.25700
N680        N  0.36484479  0.06863208  0.87743021    -0.33500
C681        C  0.35321551  0.05898357  0.88274479     0.02700
C682        C  0.35191373  0.04614662  0.87229648     0.08700
C683        C  0.36321779  0.04864556  0.86059749    -0.04400
H684        H  0.34616179  0.06124707  0.89335130     0.09400
H685        H  0.36563189  0.04110034  0.85026317     0.10600
Cu686      Cu  0.37236298  0.08999525  0.88778744     0.44200
Cu687      Cu  0.38919027  0.07323104  0.85144139     0.42000
Cu688      Cu  0.40464970  0.11059619  0.86862258     0.43900
N689        N  0.38178583  0.11138043  0.89632511    -0.33000
N690        N  0.39367286  0.11897833  0.88934216    -0.27300
C691        C  0.39712297  0.13232021  0.89789345    -0.03400
C692        C  0.38688530  0.13306677  0.91078642     0.08800
C693        C  0.37733193  0.11965693  0.90948203     0.02600
H694        H  0.40643161  0.14076327  0.89498304     0.10300
H695        H  0.36792344  0.11609638  0.91752672     0.09300
N696        N  0.41362077  0.09962997  0.84809282    -0.34500
N697        N  0.40798102  0.08611789  0.84182045    -0.26700
C698        C  0.41653730  0.08223497  0.82874979    -0.01900
C699        C  0.42803759  0.09384940  0.82676638     0.06700
C700        C  0.42591697  0.10467848  0.83918358     0.04800
H701        H  0.41460791  0.07166474  0.82136287     0.09900
H702        H  0.43284914  0.11536216  0.84165730     0.08700
C703        C  0.37938589  0.24675252  0.02003227     0.81900
N704        N  0.39175717  0.24653443  0.03050128    -0.76500
C705        C  0.40311443  0.23510655  0.02903772     0.84300
N706        N  0.40206030  0.22392395  0.01713587    -0.76400
C707        C  0.38971175  0.22413191  0.00668912     0.84400
N708        N  0.37838916  0.23554306  0.00814879    -0.78100
C709        C  0.24623099  0.32243231  0.00583374     0.88100
C710        C  0.24432821  0.33307422  0.02081443    -0.52100
C711        C  0.25738661  0.34206607  0.02426737     0.11000
C712        C  0.27112010  0.33961564  0.01246014     0.22000
C713        C  0.25091279  0.33404647  0.99221558    -0.52800
C714        C  0.26394857  0.34302820  0.99569928     0.11100
C715        C  0.26097206  0.31227759  0.00914769    -0.52400
C716        C  0.27400130  0.32129688  0.01261235     0.11700
H717        H  0.23365136  0.33350737  0.02798439     0.16200
H718        H  0.28173910  0.34696431  0.01526692     0.02000
H719        H  0.24449818  0.33509937  0.98087561     0.16500
H720        H  0.26112764  0.29918006  0.00866121     0.16300
C721        C  0.28526305  0.82862325  0.00288978     0.88100
C722        C  0.28112982  0.84045089  0.98924580    -0.52100
C723        C  0.26860085  0.85009393  0.99268804     0.11000
C724        C  0.26136250  0.84707211  0.00945525     0.22000
C725        C  0.28781942  0.83915889  0.01785664    -0.52800
C726        C  0.27531217  0.84883703  0.02129038     0.11100
C727        C  0.27002686  0.81924622  0.00616377    -0.52400
C728        C  0.25750355  0.82890500  0.00956870     0.11700
H729        H  0.28748183  0.84110632  0.97789012     0.16200
H730        H  0.25116327  0.85494844  0.01223224     0.02000
H731        H  0.29856551  0.83905640  0.02502185     0.16500
H732        H  0.26917097  0.80617440  0.00565030     0.16300
C733        C  0.23391177  0.94515174  0.87022406     0.81900
N734        N  0.23361734  0.93439459  0.88266384    -0.76500
C735        C  0.24501433  0.93489070  0.89423233     0.84300
N736        N  0.25667299  0.94607180  0.89330698    -0.76400
C737        C  0.25696838  0.95679282  0.88090116     0.84400
N738        N  0.24559966  0.95631748  0.86936082    -0.78100
C739        C  0.27964753  0.95501469  0.13549421     0.81900
N740        N  0.27890602  0.94344696  0.12397116    -0.76500
C741        C  0.28998498  0.93168648  0.12345922     0.84300
N742        N  0.30188538  0.93152837  0.13451547    -0.76400
C743        C  0.30260145  0.94314526  0.14606984     0.84400
N744        N  0.29148975  0.95485541  0.14650758    -0.78100
C745        C  0.01243910  0.23486293  0.85736818     0.88100
C746        C  0.99880819  0.23080859  0.86877812    -0.52100
C747        C  0.00180490  0.21799452  0.87869647     0.11000
C748        C  0.01813654  0.21038534  0.87629294     0.22000
C749        C  0.02677058  0.23736676  0.86841851    -0.52800
C750        C  0.02973473  0.22452252  0.87831205     0.11100
C751        C  0.01578495  0.21918405  0.84822890    -0.52400
C752        C  0.01879301  0.20637311  0.85816889     0.11700
H753        H  0.98786231  0.23755450  0.86910948     0.16200
H754        H  0.02058367  0.19994924  0.88438448     0.02000
H755        H  0.03392061  0.24825555  0.86840350     0.16500
H756        H  0.01587711  0.21831367  0.83513274     0.16300
C757        C  0.90519300  0.21263738  0.99742092     0.81900
N758        N  0.89279998  0.20230080  0.99790254    -0.76500
C759        C  0.89093439  0.19100882  0.98621507     0.84300
N760        N  0.90148552  0.19009490  0.97394025    -0.76400
C761        C  0.91392137  0.20044668  0.97344788     0.84400
N762        N  0.91572450  0.21172876  0.98517428    -0.78100
C763        C  0.15037591  0.23817742  0.97736361     0.81900
N764        N  0.15079936  0.22545610  0.98772150    -0.76500
C765        C  0.14000600  0.21344435  0.98644819     0.84300
N766        N  0.12872354  0.21416936  0.97483795    -0.76400
C767        C  0.12825105  0.22686356  0.96444755     0.84400
N768        N  0.13907185  0.23891178  0.96571379    -0.78100
C769        C  0.87730666  0.96785471  0.26761999     0.88100
C770        C  0.88820970  0.95389941  0.26301103    -0.52100
C771        C  0.89761081  0.95729130  0.25009290     0.11000
C772        C  0.89519678  0.97428590  0.24292652     0.22000
C773        C  0.88826662  0.98233687  0.27030150    -0.52800
C774        C  0.89762240  0.98567558  0.25735376     0.11100
C775        C  0.86806770  0.97187923  0.25218698    -0.52400
C776        C  0.87744133  0.97528828  0.23926861     0.11700
H777        H  0.88866080  0.94250772  0.26953319     0.16200
H778        H  0.90284987  0.97706236  0.23241043     0.02000
H779        H  0.88864706  0.98926217  0.28141977     0.16500
H780        H  0.85529209  0.97223507  0.25158440     0.16300
C781        C  0.00044783  0.84277024  0.22175112     0.81900
N782        N  0.01186593  0.84345359  0.23324875    -0.76500
C783        C  0.01184277  0.85543794  0.24437209     0.84300
N784        N  0.00034820  0.86679499  0.24399062    -0.76400
C785        C  0.98889560  0.86617511  0.23249353     0.84400
N786        N  0.98894775  0.85414294  0.22136778    -0.78100
C787        C  0.98622176  0.08123714  0.26955996     0.81900
N788        N  0.99803290  0.08060513  0.25859370    -0.76500
C789        C  0.00995881  0.09148666  0.25919200     0.84300
N790        N  0.01008130  0.10302616  0.27075737    -0.76400
C791        C  0.99830029  0.10370290  0.28175258     0.84400
N792        N  0.98633563  0.09279894  0.28116811    -0.78100
N793        N  0.15136714  0.10388889  0.09979021    -0.25700
N794        N  0.13812881  0.11021941  0.10520442    -0.33500
C795        C  0.13305206  0.12144196  0.09464125     0.02700
C796        C  0.14360549  0.12211974  0.08204003     0.08700
C797        C  0.15508010  0.11090579  0.08562117    -0.04400
H798        H  0.12250360  0.12857673  0.09607472     0.09400
H799        H  0.16537727  0.10808163  0.07852788     0.10600
Cu800      Cu  0.12761555  0.10334267  0.12668777     0.44200
Cu801      Cu  0.16378136  0.08611320  0.11198773     0.42000
Cu802      Cu  0.14731432  0.07202077  0.14985000     0.43900
N803        N  0.11921017  0.09416725  0.14830594    -0.33000
N804        N  0.12635827  0.08272725  0.15675130    -0.27300
C805        C  0.11782391  0.07944522  0.17002645    -0.03400
C806        C  0.10477082  0.08930591  0.16984401     0.08800
C807        C  0.10594923  0.09847887  0.15597371     0.02600
H808        H  0.12089022  0.07052796  0.17907835     0.10300
H809        H  0.09778220  0.10756073  0.15171746     0.09300
N810        N  0.16807747  0.06329515  0.14013304    -0.34500
N811        N  0.17405681  0.06847100  0.12631023    -0.26700
C812        C  0.18738284  0.06032750  0.12326113    -0.01900
C813        C  0.18985840  0.04959020  0.13576806     0.06700
C814        C  0.17745186  0.05170035  0.14625350     0.04800
H815        H  0.19461623  0.06200709  0.11265268     0.09900
H816        H  0.17529521  0.04521515  0.15740009     0.08700
C817        C  0.49923115  0.85849139  0.28479511     0.81900
N818        N  0.49892282  0.84613825  0.29563144    -0.76500
C819        C  0.51071360  0.83508357  0.29578183     0.84300
N820        N  0.52270646  0.83634847  0.28505594    -0.76400
C821        C  0.52299169  0.84868132  0.27424436     0.84400
N822        N  0.51124010  0.85971306  0.27410249    -0.78100
N823        N  0.63397687  0.85778351  0.16471957    -0.25700
N824        N  0.62696264  0.84458251  0.15931048    -0.33500
C825        C  0.61480124  0.84092261  0.16902376     0.02700
C826        C  0.61418675  0.85235137  0.18106566     0.08700
C827        C  0.62645140  0.86287540  0.17804314    -0.04400
H828        H  0.60696119  0.83074945  0.16736866     0.09400
H829        H  0.62963130  0.87347501  0.18492594     0.10600
Cu830      Cu  0.63398670  0.83220689  0.13885191     0.44200
Cu831      Cu  0.65328539  0.86836971  0.15355139     0.42000
Cu832      Cu  0.66646713  0.84942848  0.11649607     0.43900
N833        N  0.64264350  0.82238864  0.11767159    -0.33000
N834        N  0.65449092  0.82870850  0.10944951    -0.27300
C835        C  0.65709923  0.81965513  0.09626336    -0.03400
C836        C  0.64638473  0.80710707  0.09626338     0.08800
C837        C  0.63739802  0.80914979  0.10995104     0.02600
H838        H  0.66607394  0.82208432  0.08733310     0.10300
H839        H  0.62771546  0.80165875  0.11396816     0.09300
N840        N  0.67668915  0.87005504  0.12619892    -0.34500
N841        N  0.67191328  0.87690508  0.13973715    -0.26700
C842        C  0.68093900  0.88993214  0.14271643    -0.01900
C843        C  0.69185271  0.89129505  0.13048136     0.06700
C844        C  0.68887863  0.87856005  0.12020293     0.04800
H845        H  0.67961957  0.89781734  0.15300989     0.09900
H846        H  0.69508774  0.87566522  0.10920271     0.08700
N847        N  0.17778081  0.86926675  0.37904581    -0.25700
N848        N  0.17083444  0.87662931  0.36673855    -0.33500
C849        C  0.17933593  0.88974248  0.36266347     0.02700
C850        C  0.19217472  0.89057951  0.37290032     0.08700
C851        C  0.19087184  0.87748148  0.38313613    -0.04400
H852        H  0.17632331  0.89807254  0.35304883     0.09400
H853        H  0.19876268  0.87420526  0.39289775     0.10600
Cu854      Cu  0.14997184  0.86863523  0.35626251     0.44200
Cu855      Cu  0.16902058  0.84858999  0.38994397     0.42000
Cu856      Cu  0.13168715  0.83355569  0.37484076     0.43900
N857        N  0.12890176  0.85857467  0.34831020    -0.33000
N858        N  0.12219658  0.84583269  0.35511359    -0.27300
C859        C  0.10876809  0.84238761  0.34712717    -0.03400
C860        C  0.10700196  0.85348125  0.33476784     0.08800
C861        C  0.11992466  0.86355874  0.33581821     0.02600
H862        H  0.10093047  0.83250668  0.35007304     0.10300
H863        H  0.12263949  0.87373356  0.32808076     0.09300
N864        N  0.14390058  0.82313573  0.39405227    -0.34500
N865        N  0.15757163  0.82862838  0.39945956    -0.26700
C866        C  0.16237829  0.81938901  0.41192130    -0.01900
C867        C  0.15120703  0.80755971  0.41443662     0.06700
C868        C  0.13964030  0.81022926  0.40296806     0.04800
H869        H  0.17314943  0.82123711  0.41869365     0.09900
H870        H  0.12891138  0.80337456  0.40125708     0.08700
C871        C  0.30719032  0.99470164  0.36562565     0.81900
N872        N  0.29569854  0.98330571  0.36559559    -0.76500
C873        C  0.28435604  0.98345606  0.37707497     0.84300
N874        N  0.28449694  0.99503922  0.38861863    -0.76400
C875        C  0.29598797  0.00645882  0.38869692     0.84400
N876        N  0.30734535  0.00630310  0.37718062    -0.78100
C877        C  0.41208785  0.95263859  0.25939010     0.88100
C878        C  0.40140882  0.95742876  0.27345095    -0.52100
C879        C  0.39122540  0.96956700  0.26966599     0.11000
C880        C  0.39261400  0.97580755  0.25219871     0.22000
C881        C  0.40086459  0.94847204  0.24546003    -0.52800
C882        C  0.39066074  0.96062041  0.24170831     0.11100
C883        C  0.42029200  0.96830044  0.25421035    -0.52400
C884        C  0.41008191  0.98043943  0.25047302     0.11700
H885        H  0.40186272  0.95176483  0.28530643     0.16200
H886        H  0.38429467  0.98570248  0.24915874     0.02000
H887        H  0.40093145  0.93697612  0.23919261     0.16500
H888        H  0.43300176  0.96973950  0.25377032     0.16300
N889        N  0.37535897  0.37241191  0.38787468    -0.25700
N890        N  0.38191066  0.37897715  0.37492907    -0.33500
C891        C  0.37308392  0.39155826  0.37001133     0.02700
C892        C  0.36045023  0.39289216  0.38035829     0.08700
C893        C  0.36220975  0.38062869  0.39152347    -0.04400
H894        H  0.37567479  0.39912518  0.35967333     0.09400
H895        H  0.35451650  0.37784845  0.40154835     0.10600
Cu896      Cu  0.40250432  0.37052004  0.36444083     0.44200
Cu897      Cu  0.38440074  0.35254521  0.40009459     0.42000
Cu898      Cu  0.42034132  0.33597701  0.38418737     0.43900
N899        N  0.42291556  0.35941768  0.35631417    -0.33000
N900        N  0.42939617  0.34681860  0.36358379    -0.27300
C901        C  0.44229017  0.34236372  0.35535082    -0.03400
C902        C  0.44397598  0.35265734  0.34233704     0.08800
C903        C  0.43153915  0.36331256  0.34323955     0.02600
H904        H  0.44979247  0.33230953  0.35855741     0.10300
H905        H  0.42888254  0.37309106  0.33498065     0.09300
N906        N  0.40879616  0.32652170  0.40413721    -0.34500
N907        N  0.39559332  0.33254963  0.40997530    -0.26700
C908        C  0.39096750  0.32353695  0.42267327    -0.01900
C909        C  0.40180747  0.31133186  0.42485812     0.06700
C910        C  0.41293614  0.31352512  0.41295097     0.04800
H911        H  0.38043853  0.32563785  0.42966410     0.09900
H912        H  0.42318609  0.30614708  0.41072873     0.08700
N913        N  0.61882181  0.59046292  0.65352926    -0.25700
N914        N  0.62597935  0.57813884  0.66059101    -0.33500
C915        C  0.61773607  0.57368892  0.67373910     0.02700
C916        C  0.60483529  0.58369910  0.67491299     0.08700
C917        C  0.60584324  0.59418784  0.66198087    -0.04400
H918        H  0.62091935  0.56392095  0.68181193     0.09400
H919        H  0.59777333  0.60381590  0.65892303     0.10600
Cu920      Cu  0.64659310  0.56797043  0.65197020     0.44200
Cu921      Cu  0.62693314  0.60166748  0.63271184     0.42000
Cu922      Cu  0.66162387  0.58469296  0.61437031     0.43900
N923        N  0.66684182  0.55989717  0.64065169    -0.33000
N924        N  0.67223822  0.56593942  0.62691822    -0.27300
C925        C  0.68548834  0.55812011  0.62284775    -0.03400
C926        C  0.68851530  0.54668686  0.63458565     0.08800
C927        C  0.67653421  0.54807012  0.64569083     0.02600
H928        H  0.69240517  0.56063362  0.61217653     0.10300
H929        H  0.67496099  0.54104603  0.65661337     0.09300
N930        N  0.64960491  0.60431866  0.60490309    -0.34500
N931        N  0.63695566  0.61059286  0.61168585    -0.26700
C932        C  0.63208770  0.62327685  0.60281103    -0.01900
C933        C  0.64215774  0.62498029  0.58988061     0.06700
C934        C  0.65312736  0.61283169  0.59151622     0.04800
H935        H  0.62200800  0.63070101  0.60560806     0.09900
H936        H  0.66297793  0.61039884  0.58365077     0.08700
N937        N  0.89132100  0.83133830  0.89780981    -0.25700
N938        N  0.90357734  0.82427153  0.89102410    -0.33500
C939        C  0.90740014  0.81105547  0.89968828     0.02700
C940        C  0.89704961  0.80981603  0.91245377     0.08700
C941        C  0.88703451  0.82281562  0.91095337    -0.04400
H942        H  0.91706907  0.80305443  0.89696080     0.09400
H943        H  0.87742058  0.82594150  0.91887726     0.10600
Cu944      Cu  0.91479202  0.83305458  0.87048199     0.44200
Cu945      Cu  0.88101256  0.85238348  0.88916751     0.42000
Cu946      Cu  0.89909857  0.87010233  0.85382503     0.43900
N947        N  0.92408313  0.84461120  0.85029261    -0.33000
N948        N  0.91833073  0.85818527  0.84425832    -0.27300
C949        C  0.92688356  0.86259187  0.83131457    -0.03400
C950        C  0.93852664  0.85124380  0.82914603     0.08800
C951        C  0.93647039  0.84001523  0.84132832     0.02600
H952        H  0.92475711  0.87325092  0.82404912     0.10300
H953        H  0.94343998  0.82931778  0.84353541     0.09300
N954        N  0.87956306  0.87975105  0.86514145    -0.34500
N955        N  0.87290396  0.87330694  0.87807607    -0.26700
C956        C  0.86047630  0.88238493  0.88232257    -0.01900
C957        C  0.85935656  0.89507496  0.87152906     0.06700
C958        C  0.87157101  0.89307973  0.86080317     0.04800
H959        H  0.85282293  0.87988070  0.89245041     0.09900
H960        H  0.87442175  0.90068594  0.85056720     0.08700
C961        C  0.33959931  0.99086741  0.32965054     0.18700
C962        C  0.35565290  0.98871098  0.33293139    -0.10500
C963        C  0.36611498  0.98550184  0.32033161    -0.11300
C964        C  0.36057595  0.98443041  0.30439290     0.20200
C965        C  0.34455958  0.98679800  0.30108915    -0.13300
C966        C  0.33409994  0.99000838  0.31368586    -0.11600
C967        C  0.37119531  0.98017962  0.29157717     0.01200
C968        C  0.38019255  0.97579826  0.28125474    -0.31600
C969        C  0.32865420  0.99322825  0.34267978     0.02600
C970        C  0.31909951  0.99438442  0.35335769    -0.33300
H971        H  0.36003164  0.98926611  0.34522951     0.13600
H972        H  0.37846299  0.98361284  0.32304075     0.13400
H973        H  0.34012871  0.98591889  0.28883027     0.13300
H974        H  0.32170164  0.99157378  0.31101179     0.12300
C975        C  0.24992053  0.94903109  0.37573462     0.18700
C976        C  0.23514308  0.95187817  0.38261137    -0.10500
C977        C  0.22339733  0.94003484  0.38187844    -0.11300
C978        C  0.22636843  0.92528647  0.37425920     0.20200
C979        C  0.24114076  0.92244643  0.36736561    -0.13300
C980        C  0.25288642  0.93428980  0.36809807    -0.11600
C981        C  0.21430326  0.91305899  0.37359290     0.01200
C982        C  0.20420544  0.90280778  0.37317219    -0.31600
C983        C  0.26200905  0.96122981  0.37646357     0.02600
C984        C  0.27217135  0.97141267  0.37689977    -0.33300
H985        H  0.23271013  0.96323236  0.38853285     0.13600
H986        H  0.21202444  0.94236530  0.38725620     0.13400
H987        H  0.24357623  0.91108990  0.36144964     0.13300
H988        H  0.26426132  0.93195709  0.36272519     0.12300
C989        C  0.58122148  0.85328834  0.21679837     0.18700
C990        C  0.56561359  0.85718578  0.21291178    -0.10500
C991        C  0.55396355  0.85650587  0.22479531    -0.11300
C992        C  0.55786390  0.85191832  0.24062183     0.20200
C993        C  0.57348959  0.84813826  0.24454069    -0.13300
C994        C  0.58514267  0.84881890  0.23265470    -0.11600
C995        C  0.54579509  0.85086378  0.25274658     0.01200
C996        C  0.53550655  0.84987005  0.26269856    -0.31600
C997        C  0.59310490  0.85347215  0.20443488     0.02600
C998        C  0.60286138  0.85319611  0.19389128    -0.33300
H999        H  0.56243704  0.86062053  0.20068586     0.13600
H1000       H  0.54191746  0.85944211  0.22162540     0.13400
H1001       H  0.57663524  0.84456399  0.25673474     0.13300
H1002       H  0.59716282  0.84574381  0.23579032     0.12300
C1003       C  0.44324340  0.91663092  0.27152833     0.18700
C1004       C  0.44019628  0.90056504  0.26731670    -0.10500
C1005       C  0.45107573  0.88850761  0.27121796    -0.11300
C1006       C  0.46504436  0.89245530  0.27936816     0.20200
C1007       C  0.46802658  0.90850411  0.28371025    -0.13300
C1008       C  0.45714464  0.92056332  0.27980914    -0.11600
C1009       C  0.47663368  0.88018602  0.28255131     0.01200
C1010       C  0.48672080  0.87009609  0.28421938    -0.31600
C1011       C  0.43222215  0.92909389  0.26718215     0.02600
C1012       C  0.42309047  0.93963138  0.26355303    -0.33300
H1013       H  0.42949408  0.89739029  0.26090172     0.13600
H1014       H  0.44868935  0.87615746  0.26771486     0.13400
H1015       H  0.47882906  0.91171389  0.28992730     0.13300
H1016       H  0.45962753  0.93294952  0.28311382     0.12300
C1017       C  0.06947742  0.09018941  0.20309450     0.18700
C1018       C  0.05793217  0.10222038  0.20248436    -0.10500
C1019       C  0.04581896  0.10233897  0.21387752    -0.11300
C1020       C  0.04520538  0.09042858  0.22591842     0.20200
C1021       C  0.05674758  0.07839676  0.22652308    -0.13300
C1022       C  0.06885953  0.07827835  0.21513149    -0.11600
C1023       C  0.03277764  0.09059940  0.23766997     0.01200
C1024       C  0.02236494  0.09090010  0.24750926    -0.31600
C1025       C  0.08192935  0.09002661  0.19137093     0.02600
C1026       C  0.09236754  0.08975511  0.18156005    -0.33300
H1027       H  0.05829764  0.11148402  0.19322237     0.13600
H1028       H  0.03695385  0.11170099  0.21330839     0.13400
H1029       H  0.05638609  0.06913535  0.23578716     0.13300
H1030       H  0.07772724  0.06891921  0.21570462     0.12300
C1031       C  0.04695305  0.85584628  0.27834476     0.18700
C1032       C  0.04658705  0.86620338  0.29169198    -0.10500
C1033       C  0.05876476  0.86586041  0.30315204    -0.11300
C1034       C  0.07138775  0.85515735  0.30134277     0.20200
C1035       C  0.07175707  0.84481625  0.28798562    -0.13300
C1036       C  0.05958522  0.84515910  0.27653112    -0.11600
C1037       C  0.08391230  0.85472574  0.31318487     0.01200
C1038       C  0.09442413  0.85422194  0.32305344    -0.31600
C1039       C  0.03438761  0.85611331  0.26654470     0.02600
C1040       C  0.02400058  0.85602773  0.25652661    -0.33300
H1041       H  0.03689442  0.87451666  0.29324680     0.13600
H1042       H  0.05832781  0.87391446  0.31341881     0.13400
H1043       H  0.08143477  0.83648211  0.28643872     0.13300
H1044       H  0.06001460  0.83708418  0.26627936     0.12300
C1045       C  0.95210010  0.04682171  0.26510032     0.18700
C1046       C  0.95627268  0.03070771  0.26792013    -0.10500
C1047       C  0.94521573  0.01839548  0.26559841    -0.11300
C1048       C  0.92992599  0.02212043  0.26041889     0.20200
C1049       C  0.92575080  0.03823160  0.25754742    -0.13300
C1050       C  0.93682021  0.05055649  0.25986895    -0.11600
C1051       C  0.91847157  0.00942951  0.25846150     0.01200
C1052       C  0.90896105  0.99864345  0.25751621    -0.31600
C1053       C  0.96360052  0.05943207  0.26732038     0.02600
C1054       C  0.97366388  0.06962955  0.26874217    -0.33300
H1055       H  0.96806273  0.02766779  0.27191225     0.13600
H1056       H  0.94856578  0.00599078  0.26789696     0.13400
H1057       H  0.91395059  0.04125932  0.25358026     0.13300
H1058       H  0.93347457  0.06296565  0.25759566     0.12300
C1059       C  0.93107575  0.92419571  0.23774890     0.18700
C1060       C  0.94668165  0.92873755  0.23461222    -0.10500
C1061       C  0.95829856  0.91694301  0.23261422    -0.11300
C1062       C  0.95439357  0.90052742  0.23375041     0.20200
C1063       C  0.93874313  0.89599537  0.23664025    -0.13300
C1064       C  0.92713383  0.90778188  0.23863570    -0.11600
C1065       C  0.96650028  0.88837163  0.23258810     0.01200
C1066       C  0.97667201  0.87820043  0.23224064    -0.31600
C1067       C  0.91926793  0.93629380  0.24086106     0.02600
C1068       C  0.90937040  0.94608002  0.24446102    -0.33300
H1069       H  0.94991155  0.94137537  0.23396917     0.13600
H1070       H  0.97035158  0.92062333  0.23043148     0.13400
H1071       H  0.93556020  0.88336409  0.23759586     0.13300
H1072       H  0.91513860  0.90409932  0.24112824     0.12300
C1073       C  0.14169814  0.15332202  0.04387699     0.18700
C1074       C  0.15494211  0.15601319  0.03418779    -0.10500
C1075       C  0.15448466  0.16770594  0.02196474    -0.11300
C1076       C  0.14078191  0.17674803  0.01938735     0.20200
C1077       C  0.12747103  0.17389736  0.02893296    -0.13300
C1078       C  0.12792853  0.16220926  0.04115182    -0.11600
C1079       C  0.14052736  0.18929971  0.00733208     0.01200
C1080       C  0.14031485  0.20017166  0.99762065    -0.31600
C1081       C  0.14238694  0.14185667  0.05695187     0.02600
C1082       C  0.14296564  0.13266700  0.06825591    -0.33300
H1083       H  0.16565938  0.14922975  0.03621466     0.13600
H1084       H  0.16485332  0.16983420  0.01467357     0.13400
H1085       H  0.11682522  0.18084110  0.02706439     0.13300
H1086       H  0.11763227  0.16024718  0.04859591     0.12300
C1087       C  0.06692219  0.22533851  0.90983084     0.18700
C1088       C  0.07218412  0.24025306  0.91571194    -0.10500
C1089       C  0.08495684  0.24095687  0.92642221    -0.11300
C1090       C  0.09254971  0.22675130  0.93129728     0.20200
C1091       C  0.08731031  0.21183780  0.92538605    -0.13300
C1092       C  0.07453677  0.21113390  0.91467572    -0.11600
C1093       C  0.10551442  0.22741922  0.94256755     0.01200
C1094       C  0.11610686  0.22754287  0.95232795    -0.31600
C1095       C  0.05373277  0.22464140  0.89884507     0.02600
C1096       C  0.04273678  0.22435846  0.88957558    -0.33300
H1097       H  0.06639629  0.25131803  0.91204878     0.13600
H1098       H  0.08886966  0.25255013  0.93093807     0.13400
H1099       H  0.09305822  0.20076685  0.92909847     0.13300
H1100       H  0.07058316  0.19953535  0.91020902     0.12300
C1101       C  0.94593376  0.20228793  0.93678888     0.18700
C1102       C  0.95679317  0.19001142  0.93352976    -0.10500
C1103       C  0.96823699  0.19222188  0.92155677    -0.11300
C1104       C  0.96887870  0.20672199  0.91279748     0.20200
C1105       C  0.95792696  0.21891173  0.91596954    -0.13300
C1106       C  0.94650979  0.21670637  0.92791407    -0.11600
C1107       C  0.98088482  0.20935785  0.90077819     0.01200
C1108       C  0.99065779  0.21266283  0.89072896    -0.31600
C1109       C  0.93447839  0.20041337  0.94950552     0.02600
C1110       C  0.92498424  0.19986486  0.96032943    -0.33300
H1111       H  0.95650500  0.17882169  0.94032738     0.13600
H1112       H  0.97664233  0.18270915  0.91923249     0.13400
H1113       H  0.95830098  0.23018051  0.90930297     0.13300
H1114       H  0.93822343  0.22630687  0.93033392     0.12300
C1115       C  0.22448358  0.01563507  0.13764561     0.18700
C1116       C  0.23680957  0.01629316  0.12645863    -0.10500
C1117       C  0.24807249  0.00401861  0.12611500    -0.11300
C1118       C  0.24704877  0.99103049  0.13694825     0.20200
C1119       C  0.23480453  0.99044859  0.14822984    -0.13300
C1120       C  0.22354225  0.00272241  0.14857343    -0.11600
C1121       C  0.25846545  0.97824692  0.13639643     0.01200
C1122       C  0.26805271  0.96756181  0.13593157    -0.31600
C1123       C  0.21254648  0.02792444  0.13756980     0.02600
C1124       C  0.20229363  0.03794263  0.13703708    -0.33300
H1125       H  0.23762886  0.02620281  0.11792725     0.13600
H1126       H  0.25749771  0.00459481  0.11734916     0.13400
H1127       H  0.23390760  0.98046795  0.15666859     0.13300
H1128       H  0.21404018  0.00207469  0.15724646     0.12300
C1129       C  0.33632019  0.94778561  0.18093611     0.18700
C1130       C  0.35170454  0.94184771  0.17979067    -0.10500
C1131       C  0.36262615  0.94491175  0.19212833    -0.11300
C1132       C  0.35823544  0.95394879  0.20566664     0.20200
C1133       C  0.34285248  0.95988289  0.20680842    -0.13300
C1134       C  0.33193619  0.95681953  0.19447830    -0.11600
C1135       C  0.36946288  0.95697122  0.21842547     0.01200
C1136       C  0.37900375  0.95903306  0.22907314    -0.31600
C1137       C  0.32505716  0.94488733  0.16817512     0.02600
C1138       C  0.31513073  0.94336909  0.15780395    -0.33300
H1139       H  0.35525506  0.93488896  0.16937340     0.13600
H1140       H  0.37447842  0.94023717  0.19111702     0.13400
H1141       H  0.33930264  0.96686097  0.21721445     0.13300
H1142       H  0.32009091  0.96151531  0.19548829     0.12300
C1143       C  0.28481082  0.89955858  0.08650451     0.18700
C1144       C  0.29737090  0.89109692  0.07964529    -0.10500
C1145       C  0.29476878  0.88099993  0.06636244    -0.11300
C1146       C  0.27959473  0.87930057  0.05983619     0.20200
C1147       C  0.26703306  0.88775432  0.06670119    -0.13300
C1148       C  0.26963545  0.89785107  0.07998524    -0.11600
C1149       C  0.27699558  0.86886600  0.04614366     0.01200
C1150       C  0.27560601  0.85989759  0.03474712    -0.31600
C1151       C  0.28747028  0.91021564  0.10001166     0.02600
C1152       C  0.28909907  0.91964912  0.11099263    -0.33300
H1153       H  0.30916184  0.89233945  0.08452469     0.13600
H1154       H  0.30458571  0.87453788  0.06116917     0.13400
H1155       H  0.25525336  0.88656025  0.06178155     0.13300
H1156       H  0.25982985  0.90436144  0.08513956     0.12300
C1157       C  0.25549254  0.88264103  0.95806389     0.18700
C1158       C  0.24007107  0.88445911  0.95223906    -0.10500
C1159       C  0.23698618  0.89492761  0.93927548    -0.11300
C1160       C  0.24931626  0.90359481  0.93207803     0.20200
C1161       C  0.26469989  0.90182345  0.93797766    -0.13300
C1162       C  0.26777618  0.89138376  0.95090973    -0.11600
C1163       C  0.24636868  0.91425879  0.91860197     0.01200
C1164       C  0.24505695  0.92347478  0.90735102    -0.31600
C1165       C  0.25892289  0.87149847  0.97102148     0.02600
C1166       C  0.26280137  0.86192420  0.98130791    -0.33300
H1167       H  0.23048152  0.87772038  0.95763036     0.13600
H1168       H  0.22504231  0.89619648  0.93482585     0.13400
H1169       H  0.27433122  0.90845295  0.93252311     0.13300
H1170       H  0.27975121  0.89004065  0.95525518     0.12300
C1171       C  0.18377200  0.27267344  0.98548710     0.18700
C1172       C  0.18432501  0.27947828  0.00096230    -0.10500
C1173       C  0.19648718  0.29010988  0.00514408    -0.11300
C1174       C  0.20817761  0.29399279  0.99387550     0.20200
C1175       C  0.20752855  0.28733880  0.97833738    -0.13300
C1176       C  0.19536421  0.27670056  0.97415485    -0.11600
C1177       C  0.22108458  0.30438927  0.99837265     0.01200
C1178       C  0.23224537  0.31269921  0.00194922    -0.31600
C1179       C  0.17166707  0.26110256  0.98152517     0.02600
C1180       C  0.16177317  0.25091721  0.97905341    -0.33300
H1181       H  0.17547057  0.27640827  0.00985150     0.13600
H1182       H  0.19687793  0.29514247  0.01720188     0.13400
H1183       H  0.21652038  0.29022214  0.96953253     0.13300
H1184       H  0.19510788  0.27147370  0.96217838     0.12300
C1185       C  0.34314970  0.27896660  0.02110157     0.18700
C1186       C  0.33369331  0.28125717  0.03474844    -0.10500
C1187       C  0.32015764  0.29083962  0.03369707    -0.11300
C1188       C  0.31601484  0.29817983  0.01899611     0.20200
C1189       C  0.32561271  0.29609016  0.00543791    -0.13300
C1190       C  0.33912693  0.28652336  0.00648732    -0.11600
C1191       C  0.30156881  0.30719138  0.01753752     0.01200
C1192       C  0.28917266  0.31404723  0.01562443    -0.31600
C1193       C  0.35650440  0.26825205  0.02177630     0.02600
C1194       C  0.36723710  0.25872595  0.02146554    -0.33300
H1195       H  0.33662784  0.27542540  0.04609853     0.13600
H1196       H  0.31279746  0.29229842  0.04424872     0.13400
H1197       H  0.32250374  0.30162848  0.99398802     0.13300
H1198       H  0.34628603  0.28479048  0.99583176     0.12300
C1199       C  0.31763501  0.01175044  0.87532575     0.18700
C1200       C  0.31941305  0.99775535  0.88470222    -0.10500
C1201       C  0.30699326  0.98670349  0.88597270    -0.11300
C1202       C  0.29274513  0.98961056  0.87788624     0.20200
C1203       C  0.29095920  0.00363344  0.86856466    -0.13300
C1204       C  0.30336925  0.01467633  0.86729447    -0.11600
C1205       C  0.28001612  0.97816439  0.87903559     0.01200
C1206       C  0.26942501  0.96848712  0.87989303    -0.31600
C1207       C  0.33031289  0.02324117  0.87407441     0.02600
C1208       C  0.34047794  0.03337298  0.87309598    -0.33300
H1209       H  0.33036962  0.99539824  0.89101424     0.13600
H1210       H  0.30850138  0.97590335  0.89322268     0.13400
H1211       H  0.27999778  0.00601169  0.86226905     0.13300
H1212       H  0.30184433  0.02548642  0.86006205     0.12300
C1213       C  0.38749750  0.19022110  0.97105325     0.18700
C1214       C  0.37310733  0.18356990  0.96603022    -0.10500
C1215       C  0.37275085  0.17193838  0.95380449    -0.11300
C1216       C  0.38678332  0.16691120  0.94654643     0.20200
C1217       C  0.40116051  0.17353713  0.95160421    -0.13300
C1218       C  0.40151663  0.18515501  0.96381645    -0.11600
C1219       C  0.38649117  0.15500641  0.93390120     0.01200
C1220       C  0.38656473  0.14504206  0.92330957    -0.31600
C1221       C  0.38793852  0.20222364  0.98360766     0.02600
C1222       C  0.38862504  0.21225344  0.99412334    -0.33300
H1223       H  0.36219080  0.18737918  0.97154288     0.13600
H1224       H  0.36156303  0.16689264  0.95000580     0.13400
H1225       H  0.41208346  0.16973872  0.94609555     0.13300
H1226       H  0.41271139  0.19019460  0.96760272     0.12300
C1227       C  0.21887360  0.51209039  0.88369605     0.18700
C1228       C  0.23111778  0.51362749  0.89498579    -0.10500
C1229       C  0.24273265  0.50173654  0.89612714    -0.11300
C1230       C  0.24215711  0.48824796  0.88598389     0.20200
C1231       C  0.22986188  0.48666251  0.87475872    -0.13300
C1232       C  0.21824563  0.49855535  0.87361693    -0.11600
C1233       C  0.25425762  0.47614155  0.88696182     0.01200
C1234       C  0.26444986  0.46605475  0.88763792    -0.31600
C1235       C  0.20709316  0.52449138  0.88233951     0.02600
C1236       C  0.19740298  0.53505332  0.88124492    -0.33300
H1237       H  0.23172359  0.52404226  0.90283768     0.13600
H1238       H  0.25218379  0.50309330  0.90484770     0.13400
H1239       H  0.22930071  0.47628689  0.86685246     0.13300
H1240       H  0.20883741  0.49724018  0.86484153     0.12300
C1241       C  0.27792734  0.37611072  0.96204115     0.18700
C1242       C  0.28917638  0.37258345  0.95022401    -0.10500
C1243       C  0.29205837  0.38356503  0.93766967    -0.11300
C1244       C  0.28368897  0.39810228  0.93688263     0.20200
C1245       C  0.27256148  0.40167484  0.94878834    -0.13300
C1246       C  0.26968642  0.39071482  0.96132017    -0.11600
C1247       C  0.28617437  0.40925550  0.92374054     0.01200
C1248       C  0.28740928  0.41901716  0.91296889    -0.31600
C1249       C  0.27425465  0.36450819  0.97448051     0.02600
C1250       C  0.27013474  0.35477229  0.98448575    -0.33300
H1251       H  0.29555931  0.36128854  0.95060562     0.13600
H1252       H  0.30066650  0.38065746  0.92851405     0.13400
H1253       H  0.26599322  0.41285575  0.94828726     0.13300
H1254       H  0.26090103  0.39353533  0.97032763     0.12300
C1255       C  0.00221902  0.13992187  0.31474954     0.18700
C1256       C  0.99977960  0.13763727  0.33134057    -0.10500
C1257       C  0.00268374  0.15026213  0.34215518    -0.11300
C1258       C  0.00805651  0.16522476  0.33643184     0.20200
C1259       C  0.01038020  0.16753591  0.31983062    -0.13300
C1260       C  0.00747732  0.15492286  0.30902531    -0.11600
C1261       C  0.01135421  0.17815089  0.34755637     0.01200
C1262       C  0.01423323  0.18910282  0.35668483    -0.31600
C1263       C  0.99982271  0.12680025  0.30361745     0.02600
C1264       C  0.99860439  0.11604974  0.29389392    -0.33300
H1265       H  0.99576606  0.12608306  0.33591717     0.13600
H1266       H  0.00084527  0.14832916  0.35496324     0.13400
H1267       H  0.01453211  0.17904219  0.31525875     0.13300
H1268       H  0.00945676  0.15682274  0.29623360     0.12300
C1269       C  0.04246334  0.30052342  0.32733813     0.18700
C1270       C  0.03114014  0.30154441  0.33957163    -0.10500
C1271       C  0.02799827  0.28814824  0.34942086    -0.11300
C1272       C  0.03617005  0.27367744  0.34707690     0.20200
C1273       C  0.04774590  0.27279819  0.33509643    -0.13300
C1274       C  0.05088202  0.28617311  0.32526121    -0.11600
C1275       C  0.03207548  0.25941993  0.35618028     0.01200
C1276       C  0.02855825  0.24681921  0.36258636    -0.31600
C1277       C  0.04472383  0.31374628  0.31621921     0.02600
C1278       C  0.04603233  0.32417292  0.30609271    -0.33300
H1279       H  0.02449579  0.31254842  0.34124106     0.13600
H1280       H  0.01897031  0.28895755  0.35858850     0.13400
H1281       H  0.05408520  0.26165829  0.33310908     0.13300
H1282       H  0.05959791  0.28520185  0.31579446     0.12300
C1283       C  0.90809106  0.24765681  0.03188904     0.18700
C1284       C  0.89436822  0.25629357  0.03539111    -0.10500
C1285       C  0.89463096  0.26842700  0.04709308    -0.11300
C1286       C  0.90861798  0.27200151  0.05537678     0.20200
C1287       C  0.92236058  0.26338254  0.05187048    -0.13300
C1288       C  0.92209793  0.25123568  0.04015411    -0.11600
C1289       C  0.90880368  0.28445868  0.06748541     0.01200
C1290       C  0.90871806  0.29490610  0.07760403    -0.31600
C1291       C  0.90771798  0.23516240  0.01982150     0.02600
C1292       C  0.90686702  0.22481447  0.00963095    -0.33300
H1293       H  0.88347084  0.25364133  0.02908420     0.13600
H1294       H  0.88393473  0.27500250  0.04969233     0.13400
H1295       H  0.93324757  0.26603691  0.05819350     0.13300
H1296       H  0.93278411  0.24464570  0.03755292     0.12300
C1297       C  0.00187954  0.34933694  0.23482142     0.18700
C1298       C  0.00485323  0.35828160  0.22075466    -0.10500
C1299       C  0.99365069  0.35879755  0.20833188    -0.11300
C1300       C  0.97941896  0.35036977  0.20991663     0.20200
C1301       C  0.97638981  0.34152992  0.22403725    -0.13300
C1302       C  0.98759547  0.34101340  0.23646329    -0.11600
C1303       C  0.96804567  0.35060351  0.19697237     0.01200
C1304       C  0.95862176  0.35069026  0.18603731    -0.31600
C1305       C  0.01358350  0.34852364  0.24742817     0.02600
C1306       C  0.02363012  0.34786983  0.25774344    -0.33300
H1307       H  0.01585731  0.36476310  0.21935391     0.13600
H1308       H  0.99612041  0.36567132  0.19747014     0.13400
H1309       H  0.96542606  0.33496845  0.22539254     0.13300
H1310       H  0.98517018  0.33405901  0.24728375     0.12300
C1311       C  0.90526194  0.18762283  0.53666537     0.18700
C1312       C  0.89456791  0.18812315  0.54950353    -0.10500
C1313       C  0.89455941  0.17589539  0.56120895    -0.11300
C1314       C  0.90524602  0.16309209  0.56014932     0.20200
C1315       C  0.91597739  0.16261160  0.54733799    -0.13300
C1316       C  0.91598581  0.17484508  0.53562714    -0.11600
C1317       C  0.90506394  0.15039135  0.57209825     0.01200
C1318       C  0.90466955  0.13971821  0.58205144    -0.31600
C1319       C  0.90512336  0.20013704  0.52451869     0.02600
C1320       C  0.90481631  0.21060203  0.51434111    -0.33300
H1321       H  0.88621340  0.19792768  0.55043280     0.13600
H1322       H  0.88619528  0.17639357  0.57104176     0.13400
H1323       H  0.92428479  0.15276882  0.54637558     0.13300
H1324       H  0.92430264  0.17431549  0.52575426     0.12300
C1325       C  0.97403490  0.23080231  0.42256904     0.18700
C1326       C  0.95846303  0.23295741  0.41733348    -0.10500
C1327       C  0.94637153  0.23487033  0.42860937    -0.11300
C1328       C  0.94977741  0.23463435  0.44519311     0.20200
C1329       C  0.96537680  0.23267460  0.45042141    -0.13300
C1330       C  0.97746710  0.23075999  0.43914611    -0.11600
C1331       C  0.93724819  0.23577911  0.45685171     0.01200
C1332       C  0.92693167  0.23603568  0.46684709    -0.31600
C1333       C  0.98631940  0.22786777  0.41096891     0.02600
C1334       C  0.99619725  0.22448688  0.40110266    -0.33300
H1335       H  0.95564207  0.23292135  0.40455584     0.13600
H1336       H  0.93436059  0.23630748  0.42440858     0.13400
H1337       H  0.96815851  0.23240274  0.46320583     0.13300
H1338       H  0.98943680  0.22901400  0.44335338     0.12300
C1339       C  0.44061365  0.23229788  0.06005692     0.18700
C1340       C  0.45493617  0.22613493  0.05444290    -0.10500
C1341       C  0.46778403  0.22455367  0.06498581    -0.11300
C1342       C  0.46639496  0.22912472  0.08121127     0.20200
C1343       C  0.45207351  0.23527766  0.08681923    -0.13300
C1344       C  0.43922913  0.23685902  0.07627957    -0.11600
C1345       C  0.47960441  0.22743497  0.09210850     0.01200
C1346       C  0.49063023  0.22586117  0.10124393    -0.31600
C1347       C  0.42731759  0.23377259  0.04923730     0.02600
C1348       C  0.41620823  0.23467429  0.04012075    -0.33300
H1349       H  0.45615837  0.22252751  0.04194256     0.13600
H1350       H  0.47877602  0.21975360  0.06049915     0.13400
H1351       H  0.45083175  0.23882782  0.09933317     0.13300
H1352       H  0.42822137  0.24160234  0.08078374     0.12300
C1353       C  0.60247390  0.20894746  0.07396084     0.18700
C1354       C  0.59277867  0.19556004  0.07693499    -0.10500
C1355       C  0.57916112  0.19722417  0.08627280    -0.11300
C1356       C  0.57514077  0.21228435  0.09270268     0.20200
C1357       C  0.58493385  0.22563007  0.08988182    -0.13300
C1358       C  0.59854797  0.22396622  0.08054876    -0.11600
C1359       C  0.56058118  0.21422193  0.10143407     0.01200
C1360       C  0.54790771  0.21604967  0.10774500    -0.31600
C1361       C  0.61598340  0.20751299  0.06352058     0.02600
C1362       C  0.62677688  0.20707977  0.05406010    -0.33300
H1363       H  0.59560677  0.18390994  0.07183108     0.13600
H1364       H  0.57164087  0.18683567  0.08825700     0.13400
H1365       H  0.58191473  0.23736405  0.09467188     0.13300
H1366       H  0.60587214  0.23443958  0.07825609     0.12300
C1367       C  0.64507324  0.27996271  0.96053513     0.18700
C1368       C  0.63997869  0.28307891  0.97629609    -0.10500
C1369       C  0.64066207  0.27094205  0.98806727    -0.11300
C1370       C  0.64644617  0.25564036  0.98412873     0.20200
C1371       C  0.65146873  0.25250302  0.96834583    -0.13300
C1372       C  0.65078447  0.26463830  0.95657626    -0.11600
C1373       C  0.64733834  0.24321660  0.99629724     0.01200
C1374       C  0.64813849  0.23283697  0.00651224    -0.31600
C1375       C  0.64460426  0.29250252  0.94846809     0.02600
C1376       C  0.64443599  0.30289954  0.93824507    -0.33300
H1377       H  0.63554576  0.29488465  0.97949043     0.13600
H1378       H  0.63674406  0.27349890  0.00023133     0.13400
H1379       H  0.65595882  0.24071637  0.96516392     0.13300
H1380       H  0.65475814  0.26209874  0.94442715     0.12300
C1381       C  0.50416306  0.14276919  0.18614616     0.18700
C1382       C  0.51965535  0.14817449  0.18382614    -0.10500
C1383       C  0.52271890  0.16121240  0.17347281    -0.11300
C1384       C  0.51029960  0.16893154  0.16538984     0.20200
C1385       C  0.49482305  0.16348814  0.16768294    -0.13300
C1386       C  0.49176273  0.15046294  0.17802603    -0.11600
C1387       C  0.51329750  0.18236358  0.15467173     0.01200
C1388       C  0.51466414  0.19350795  0.14532864    -0.31600
C1389       C  0.50097980  0.12966024  0.19719790     0.02600
C1390       C  0.49875719  0.11912499  0.20705776    -0.33300
H1391       H  0.52934429  0.14236868  0.19008072     0.13600
H1392       H  0.53473239  0.16528369  0.17180511     0.13400
H1393       H  0.48511704  0.16934031  0.16149921     0.13300
H1394       H  0.47973674  0.14645359  0.17975246     0.12300
C1395       C  0.43013388  0.02403505  0.24047625     0.18700
C1396       C  0.43449841  0.02861540  0.22479577    -0.10500
C1397       C  0.44415335  0.04212766  0.22238228    -0.11300
C1398       C  0.44949826  0.05112029  0.23563509     0.20200
C1399       C  0.44483102  0.04674352  0.25127881    -0.13300
C1400       C  0.43518471  0.03324762  0.25368912    -0.11600
C1401       C  0.46055309  0.06416506  0.23335235     0.01200
C1402       C  0.47060338  0.07442930  0.23218230    -0.31600
C1403       C  0.42151805  0.00926588  0.24317369     0.02600
C1404       C  0.41555504  0.99635704  0.24610746    -0.33300
H1405       H  0.43076657  0.02152706  0.21449185     0.13600
H1406       H  0.44774776  0.04532883  0.21024024     0.13400
H1407       H  0.44895339  0.05352965  0.26163480     0.13300
H1408       H  0.43199222  0.02976486  0.26587701     0.12300
C1409       C  0.56370956  0.09610594  0.30310085     0.18700
C1410       C  0.56339917  0.08387038  0.29146523    -0.10500
C1411       C  0.55148286  0.08356251  0.27975633    -0.11300
C1412       C  0.53981970  0.09548685  0.27963213     0.20200
C1413       C  0.54005422  0.10764752  0.29134895    -0.13300
C1414       C  0.55197207  0.10795507  0.30305939    -0.11600
C1415       C  0.52782798  0.09543573  0.26729208     0.01200
C1416       C  0.51799714  0.09557315  0.25674380    -0.31600
C1417       C  0.57621900  0.09666834  0.31487425     0.02600
C1418       C  0.58684936  0.09723720  0.32455530    -0.33300
H1419       H  0.57242140  0.07465583  0.29137414     0.13600
H1420       H  0.55142996  0.07411705  0.27074217     0.13400
H1421       H  0.53110864  0.11694134  0.29135368     0.13300
H1422       H  0.55210340  0.11747954  0.31198927     0.12300
C1423       C  0.59100483  0.53424003  0.26542648     0.18700
C1424       C  0.58622149  0.51860636  0.26122459    -0.10500
C1425       C  0.59738933  0.50637749  0.25933921    -0.11300
C1426       C  0.61342238  0.50969168  0.26165026     0.20200
C1427       C  0.61819873  0.52526851  0.26609055    -0.13300
C1428       C  0.60702091  0.53750870  0.26797846    -0.11600
C1429       C  0.62497708  0.49734870  0.25862488     0.01200
C1430       C  0.63460227  0.48727654  0.25508986    -0.31600
C1431       C  0.57951388  0.54697531  0.26656650     0.02600
C1432       C  0.56962019  0.55740817  0.26692256    -0.33300
H1433       H  0.57388623  0.51592914  0.25917788     0.13600
H1434       H  0.59354849  0.49441584  0.25582654     0.13400
H1435       H  0.63056366  0.52800877  0.26783521     0.13300
H1436       H  0.61087954  0.54954781  0.27119263     0.12300
C1437       C  0.53749741  0.29372076  0.19065948     0.18700
C1438       C  0.52251291  0.29261168  0.18358179    -0.10500
C1439       C  0.51930813  0.28072590  0.17203575    -0.11300
C1440       C  0.53105526  0.26982474  0.16746160     0.20200
C1441       C  0.54606158  0.27093691  0.17450785    -0.13300
C1442       C  0.54927148  0.28284019  0.18607028    -0.11600
C1443       C  0.52761914  0.25749943  0.15563277     0.01200
C1444       C  0.52423582  0.24734094  0.14574854    -0.31600
C1445       C  0.54065335  0.30595392  0.20267146     0.02600
C1446       C  0.54259683  0.31628866  0.21277613    -0.33300
H1447       H  0.51329356  0.30091663  0.18701424     0.13600
H1448       H  0.50766016  0.28001539  0.16670379     0.13400
H1449       H  0.55525429  0.26259456  0.17109599     0.13300
H1450       H  0.56090061  0.28353498  0.19144305     0.12300
C1451       C  0.61388492  0.41053488  0.24093429     0.18700
C1452       C  0.61016668  0.40421798  0.22568634    -0.10500
C1453       C  0.59908668  0.39175473  0.22420985    -0.11300
C1454       C  0.59164697  0.38550632  0.23797431     0.20200
C1455       C  0.59536966  0.39182157  0.25322208    -0.13300
C1456       C  0.60644771  0.40428415  0.25469833    -0.11600
C1457       C  0.58000800  0.37284644  0.23648988     0.01200
C1458       C  0.56986941  0.36260446  0.23581963    -0.31600
C1459       C  0.62528700  0.42341841  0.24240371     0.02600
C1460       C  0.63485993  0.43420859  0.24315371    -0.33300
H1461       H  0.61581004  0.40894477  0.21494327     0.13600
H1462       H  0.59629220  0.38703405  0.21234935     0.13400
H1463       H  0.58967407  0.38714704  0.26395881     0.13300
H1464       H  0.60918793  0.40905587  0.26655167     0.12300
C1465       C  0.47783110  0.34949332  0.30752229     0.18700
C1466       C  0.48777582  0.33602331  0.30742972    -0.10500
C1467       C  0.49909232  0.33433471  0.29530728    -0.11300
C1468       C  0.50053441  0.34610172  0.28319493     0.20200
C1469       C  0.49064952  0.35962129  0.28333718    -0.13300
C1470       C  0.47932895  0.36130989  0.29546317    -0.11600
C1471       C  0.51213471  0.34429672  0.27064889     0.01200
C1472       C  0.52193098  0.34287796  0.26021820    -0.31600
C1473       C  0.46596593  0.35104160  0.31983716     0.02600
C1474       C  0.45594730  0.35199888  0.33009614    -0.33300
H1475       H  0.48673519  0.32680249  0.31667881     0.13600
H1476       H  0.50667487  0.32384408  0.29535057     0.13400
H1477       H  0.49166120  0.36881671  0.27405991     0.13300
H1478       H  0.47171256  0.37177461  0.29539630     0.12300
C1479       C  0.49998982  0.58036879  0.22044157     0.18700
C1480       C  0.49968884  0.56902072  0.20793496    -0.10500
C1481       C  0.48754080  0.56929727  0.19646812    -0.11300
C1482       C  0.47563486  0.58092198  0.19744928     0.20200
C1483       C  0.47592289  0.59225830  0.20996754    -0.13300
C1484       C  0.48806944  0.59198157  0.22143311    -0.11600
C1485       C  0.46315079  0.58122372  0.18562343     0.01200
C1486       C  0.45267485  0.58148354  0.17574540    -0.31600
C1487       C  0.51248237  0.58010491  0.23226688     0.02600
C1488       C  0.52277682  0.58009334  0.24235326    -0.33300
H1489       H  0.50883003  0.55997972  0.20705023     0.13600
H1490       H  0.48743400  0.56046779  0.18684870     0.13400
H1491       H  0.46677833  0.60129681  0.21085595     0.13300
H1492       H  0.48817017  0.60080921  0.23105496     0.12300
C1493       C  0.25626720  0.37289920  0.06266745     0.18700
C1494       C  0.26976414  0.37968660  0.06970005    -0.10500
C1495       C  0.26835649  0.39035099  0.08269179    -0.11300
C1496       C  0.25345206  0.39427457  0.08872350     0.20200
C1497       C  0.23996926  0.38741580  0.08174639    -0.13300
C1498       C  0.24137619  0.37675611  0.06876298    -0.11600
C1499       C  0.25201337  0.40558535  0.10182127     0.01200
C1500       C  0.25125221  0.41543163  0.11249442    -0.31600
C1501       C  0.25759217  0.36209133  0.04913483     0.02600
C1502       C  0.25796070  0.35301593  0.03777290    -0.33300
H1503       H  0.28133910  0.37680294  0.06510096     0.13600
H1504       H  0.27886665  0.39560515  0.08796598     0.13400
H1505       H  0.22838569  0.39037661  0.08627355     0.13300
H1506       H  0.23085628  0.37158504  0.06342677     0.12300
C1507       C  0.31995345  0.50957979  0.13326051     0.18700
C1508       C  0.31964249  0.49714094  0.12184922    -0.10500
C1509       C  0.30821888  0.48500797  0.12284133    -0.11300
C1510       C  0.29705857  0.48525369  0.13525483     0.20200
C1511       C  0.29740521  0.49765460  0.14671380    -0.13300
C1512       C  0.30883603  0.50979404  0.14572127    -0.11600
C1513       C  0.28512426  0.47292964  0.13604984     0.01200
C1514       C  0.27502213  0.46269691  0.13636159    -0.31600
C1515       C  0.33169042  0.52207870  0.13217281     0.02600
C1516       C  0.34167998  0.53238642  0.13121737    -0.33300
H1517       H  0.32819518  0.49684783  0.11217887     0.13600
H1518       H  0.30804709  0.47548632  0.11390828     0.13400
H1519       H  0.28881962  0.49796943  0.15635213     0.13300
H1520       H  0.30898391  0.51934554  0.15462186     0.12300
C1521       C  0.18445501  0.45400204  0.20604482     0.18700
C1522       C  0.17934444  0.45169495  0.19009035    -0.10500
C1523       C  0.19014777  0.44752370  0.17808517    -0.11300
C1524       C  0.20610964  0.44563204  0.18198171     0.20200
C1525       C  0.21116556  0.44769608  0.19798218    -0.13300
C1526       C  0.20037077  0.45186432  0.20997752    -0.11600
C1527       C  0.21743804  0.44240354  0.16949215     0.01200
C1528       C  0.22734092  0.44066761  0.15923398    -0.31600
C1529       C  0.17354927  0.45927079  0.21821784     0.02600
C1530       C  0.16461210  0.46440219  0.22824878    -0.33300
H1531       H  0.16707840  0.45337906  0.18688927     0.13600
H1532       H  0.18610952  0.44604410  0.16574537     0.13400
H1533       H  0.22348577  0.44635319  0.20112812     0.13300
H1534       H  0.20447305  0.45368061  0.22224975     0.12300
C1535       C  0.11277698  0.41885909  0.26972220     0.18700
C1536       C  0.10570288  0.41651644  0.28481885    -0.10500
C1537       C  0.09612015  0.40303007  0.28751968    -0.11300
C1538       C  0.09356379  0.39182959  0.27513847     0.20200
C1539       C  0.10087599  0.39401634  0.26013686    -0.13300
C1540       C  0.11046069  0.40750032  0.25743724    -0.11600
C1541       C  0.08264964  0.37871612  0.27747838     0.01200
C1542       C  0.07266874  0.36845320  0.27897571    -0.31600
C1543       C  0.12157676  0.43337651  0.26650289     0.02600
C1544       C  0.12800485  0.44596807  0.26330963    -0.33300
H1545       H  0.10732089  0.42527651  0.29436912     0.13600
H1546       H  0.09043808  0.40152304  0.29912601     0.13400
H1547       H  0.09889580  0.38549942  0.25043596     0.13300
H1548       H  0.11578254  0.40924767  0.24568262     0.12300
C1549       C  0.08051767  0.54977500  0.23372681     0.18700
C1550       C  0.09656252  0.55369348  0.23297442    -0.10500
C1551       C  0.10794192  0.54189409  0.23615359    -0.11300
C1552       C  0.10332150  0.52612712  0.24010704     0.20200
C1553       C  0.08728193  0.52220235  0.24077564    -0.13300
C1554       C  0.07591538  0.53398835  0.23760040    -0.11600
C1555       C  0.11493650  0.51395106  0.24359768     0.01200
C1556       C  0.12407045  0.50323366  0.24667485    -0.31600
C1557       C  0.06876879  0.56198035  0.23085688     0.02600
C1558       C  0.05878292  0.57213835  0.22889319    -0.33300
H1559       H  0.10026282  0.56586593  0.23002251     0.13600
H1560       H  0.12030582  0.54507193  0.23559979     0.13400
H1561       H  0.08356843  0.51005457  0.24381986     0.13300
H1562       H  0.06355324  0.53081787  0.23825181     0.12300
C1563       C  0.96324203  0.59647591  0.29197107     0.18700
C1564       C  0.96677544  0.61063757  0.28339586    -0.10500
C1565       C  0.97870740  0.61064049  0.27177260    -0.11300
C1566       C  0.98715471  0.59648273  0.26868025     0.20200
C1567       C  0.98355612  0.58231816  0.27719848    -0.13300
C1568       C  0.97163771  0.58231502  0.28880789    -0.11600
C1569       C  0.99965699  0.59648412  0.25696776     0.01200
C1570       C  0.01032085  0.59625142  0.24738756    -0.31600
C1571       C  0.95119153  0.59647925  0.30417335     0.02600
C1572       C  0.94131803  0.59630343  0.31461196    -0.33300
H1573       H  0.96037687  0.62166672  0.28575117     0.13600
H1574       H  0.98139607  0.62167147  0.26527386     0.13400
H1575       H  0.99001591  0.57130844  0.27492623     0.13300
H1576       H  0.96902668  0.57130297  0.29537241     0.12300
C1577       C  0.29665301  0.53815041  0.58322585     0.18700
C1578       C  0.29305119  0.55449518  0.58534371    -0.10500
C1579       C  0.28992229  0.56430670  0.57191507    -0.11300
C1580       C  0.29036233  0.55781786  0.55630763     0.20200
C1581       C  0.29407670  0.54150383  0.55418771    -0.13300
C1582       C  0.29720621  0.53169685  0.56761026    -0.11600
C1583       C  0.28678086  0.56782518  0.54251181     0.01200
C1584       C  0.28360885  0.57624055  0.53103022    -0.31600
C1585       C  0.29910660  0.52782107  0.59704389     0.02600
C1586       C  0.30029083  0.51865315  0.60833745    -0.33300
H1587       H  0.29250014  0.55960040  0.59735892     0.13600
H1588       H  0.28703808  0.57689756  0.57370396     0.13400
H1589       H  0.29442584  0.53634487  0.54218618     0.13300
H1590       H  0.29988856  0.51905739  0.56582705     0.12300
C1591       C  0.18760539  0.48275982  0.30453179     0.18700
C1592       C  0.18429808  0.47702105  0.32011516    -0.10500
C1593       C  0.19517753  0.47931437  0.33266987    -0.11300
C1594       C  0.20941210  0.48738167  0.32971242     0.20200
C1595       C  0.21274386  0.49302046  0.31410773    -0.13300
C1596       C  0.20187786  0.49072776  0.30156750    -0.11600
C1597       C  0.22067631  0.48978068  0.34258676     0.01200
C1598       C  0.23050740  0.49158790  0.35301365    -0.31600
C1599       C  0.17624071  0.48088258  0.29167214     0.02600
C1600       C  0.16669178  0.47995919  0.28086744    -0.33300
H1601       H  0.17329469  0.47086733  0.32257286     0.13600
H1602       H  0.19247748  0.47484891  0.34466396     0.13400
H1603       H  0.22371870  0.49922707  0.31164699     0.13300
H1604       H  0.20456482  0.49524678  0.28958925     0.12300
C1605       C  0.26240734  0.56352732  0.44670834     0.18700
C1606       C  0.27244216  0.56416235  0.43330669    -0.10500
C1607       C  0.27009166  0.55365581  0.42028242    -0.11300
C1608       C  0.25769901  0.54244551  0.42058550     0.20200
C1609       C  0.24750289  0.54203037  0.43385286    -0.13300
C1610       C  0.24984916  0.55252579  0.44685950    -0.11600
C1611       C  0.25597471  0.53075860  0.40779357     0.01200
C1612       C  0.25503854  0.52027773  0.39771802    -0.31600
C1613       C  0.26552692  0.57334195  0.46074778     0.02600
C1614       C  0.26835488  0.58032692  0.47321996    -0.33300
H1615       H  0.28225867  0.57252639  0.43307556     0.13600
H1616       H  0.27811678  0.55404711  0.41014699     0.13400
H1617       H  0.23793984  0.53337047  0.43429490     0.13300
H1618       H  0.24207330  0.55182418  0.45718435     0.12300
C1619       C  0.30073959  0.44907636  0.37852662     0.18700
C1620       C  0.29980547  0.43538637  0.36867220    -0.10500
C1621       C  0.31188770  0.42393116  0.36895991    -0.11300
C1622       C  0.32497074  0.42610693  0.37910046     0.20200
C1623       C  0.32586460  0.43975977  0.38900517    -0.13300
C1624       C  0.31378647  0.45121093  0.38871747    -0.11600
C1625       C  0.33747991  0.41438086  0.37933885     0.01200
C1626       C  0.34798418  0.40460226  0.37968714    -0.31600
C1627       C  0.28841664  0.46099863  0.37806656     0.02600
C1628       C  0.27817539  0.47105776  0.37756769    -0.33300
H1629       H  0.28977948  0.43360057  0.36074230     0.13600
H1630       H  0.31105034  0.41341949  0.36126036     0.13400
H1631       H  0.33590623  0.44156923  0.39690844     0.13300
H1632       H  0.31464417  0.46174094  0.39638997     0.12300
C1633       C  0.25342530  0.45139622  0.63609965     0.18700
C1634       C  0.25618897  0.43528979  0.63192786    -0.10500
C1635       C  0.24385574  0.42409285  0.63225087    -0.11300
C1636       C  0.22871161  0.42895279  0.63674738     0.20200
C1637       C  0.22596151  0.44504071  0.64100395    -0.13300
C1638       C  0.23829921  0.45624166  0.64068126    -0.11600
C1639       C  0.21599940  0.41745731  0.63674593     0.01200
C1640       C  0.20560880  0.40754128  0.63636457    -0.31600
C1641       C  0.26604581  0.46298335  0.63550182     0.02600
C1642       C  0.27649873  0.47281991  0.63489333    -0.33300
H1643       H  0.26783606  0.43141696  0.62835875     0.13600
H1644       H  0.24610268  0.41168299  0.62892078     0.13400
H1645       H  0.21429352  0.44892862  0.64448294     0.13300
H1646       H  0.23603676  0.46867202  0.64392110     0.12300
C1647       C  0.07240562  0.21126079  0.42011012     0.18700
C1648       C  0.08678145  0.20484611  0.41495597    -0.10500
C1649       C  0.09966940  0.20427948  0.42553322    -0.11300
C1650       C  0.09825966  0.21011782  0.44133123     0.20200
C1651       C  0.08386641  0.21647856  0.44650625    -0.13300
C1652       C  0.07097648  0.21704543  0.43592713    -0.11600
C1653       C  0.11161576  0.20978847  0.45213970     0.01200
C1654       C  0.12281822  0.20979917  0.46116295    -0.31600
C1655       C  0.05916234  0.21190584  0.40917217     0.02600
C1656       C  0.04816725  0.21228473  0.39989463    -0.33300
H1657       H  0.08803411  0.20032446  0.40276414     0.13600
H1658       H  0.11073226  0.19934900  0.42138213     0.13400
H1659       H  0.08262879  0.22104456  0.45868282     0.13300
H1660       H  0.05992626  0.22202024  0.44006036     0.12300
C1661       C  0.15338902  0.25704429  0.52826351     0.18700
C1662       C  0.16111112  0.27176682  0.52555707    -0.10500
C1663       C  0.16215343  0.28318679  0.53793587    -0.11300
C1664       C  0.15548633  0.27991897  0.55306523     0.20200
C1665       C  0.14782971  0.26517403  0.55577797    -0.13300
C1666       C  0.14678799  0.25376762  0.54341384    -0.11600
C1667       C  0.15627697  0.29172507  0.56575728     0.01200
C1668       C  0.15651253  0.30146178  0.57654272    -0.31600
C1669       C  0.15220239  0.24527320  0.51555938     0.02600
C1670       C  0.15110687  0.23510952  0.50522169    -0.33300
H1671       H  0.16627580  0.27442305  0.51389602     0.13600
H1672       H  0.16809058  0.29455606  0.53570158     0.13400
H1673       H  0.14262140  0.26252536  0.56742155     0.13300
H1674       H  0.14080775  0.24242176  0.54565015     0.12300
C1675       C  0.19550520  0.16616261  0.48144685     0.18700
C1676       C  0.19302467  0.15048914  0.48733246    -0.10500
C1677       C  0.20572552  0.13990355  0.48914349    -0.11300
C1678       C  0.22097176  0.14494260  0.48508863     0.20200
C1679       C  0.22341837  0.16053333  0.47897923    -0.13300
C1680       C  0.21071968  0.17111689  0.47716779    -0.11600
C1681       C  0.23415356  0.13435170  0.48776970     0.01200
C1682       C  0.24520953  0.12565236  0.49056082    -0.31600
C1683       C  0.18260234  0.17738625  0.48048761     0.02600
C1684       C  0.17209162  0.18715340  0.48040780    -0.33300
H1685       H  0.18132976  0.14654234  0.49074401     0.13600
H1686       H  0.20369689  0.12789273  0.49391963     0.13400
H1687       H  0.23515676  0.16457819  0.47584558     0.13300
H1688       H  0.21279585  0.18322461  0.47266893     0.12300
C1689       C  0.29342653  0.04056172  0.42404799     0.18700
C1690       C  0.28140595  0.05205882  0.42296498    -0.10500
C1691       C  0.27903960  0.06297370  0.43556200    -0.11300
C1692       C  0.28866423  0.06247389  0.44934513     0.20200
C1693       C  0.30083837  0.05112299  0.45035822    -0.13300
C1694       C  0.30321131  0.04018599  0.43773264    -0.11600
C1695       C  0.28561644  0.07334339  0.46252478     0.01200
C1696       C  0.28180085  0.08268223  0.47294932    -0.31600
C1697       C  0.29524915  0.02880392  0.41139690     0.02600
C1698       C  0.29598240  0.01873394  0.40092663    -0.33300
H1699       H  0.27373317  0.05244546  0.41248316     0.13600
H1700       H  0.26957555  0.07167349  0.43464531     0.13400
H1701       H  0.30834551  0.05060032  0.46095689     0.13300
H1702       H  0.31251803  0.03132204  0.43873074     0.12300
C1703       C  0.26516662  0.06390101  0.55153549     0.18700
C1704       C  0.25019574  0.05901744  0.55671266    -0.10500
C1705       C  0.24864437  0.04881046  0.57012262    -0.11300
C1706       C  0.26205567  0.04345681  0.57843884     0.20200
C1707       C  0.27702163  0.04841735  0.57331980    -0.13300
C1708       C  0.27857285  0.05862232  0.55991032    -0.11600
C1709       C  0.26053880  0.03249183  0.59189273     0.01200
C1710       C  0.25985622  0.02276382  0.60274628    -0.31600
C1711       C  0.26673651  0.07431984  0.53765715     0.02600
C1712       C  0.26765450  0.08322621  0.52613517    -0.33300
H1713       H  0.23974303  0.06304018  0.55034607     0.13600
H1714       H  0.23702046  0.04501288  0.57393131     0.13400
H1715       H  0.28748063  0.04430968  0.57962116     0.13300
H1716       H  0.29020316  0.06233281  0.55603745     0.12300
C1717       C  0.30702492  0.95397104  0.62622942     0.18700
C1718       C  0.30815244  0.94276642  0.63888788    -0.10500
C1719       C  0.31930958  0.93043072  0.63822318    -0.11300
C1720       C  0.32934555  0.92927056  0.62489404     0.20200
C1721       C  0.32830093  0.94054947  0.61230041    -0.13300
C1722       C  0.31714645  0.95288387  0.61296522    -0.11600
C1723       C  0.34063462  0.91645141  0.62409435     0.01200
C1724       C  0.35010950  0.90570647  0.62356096    -0.31600
C1725       C  0.29521021  0.96630896  0.62663061     0.02600
C1726       C  0.28499750  0.97633964  0.62671201    -0.33300
H1727       H  0.30034583  0.94349696  0.64917912     0.13600
H1728       H  0.32005044  0.92176179  0.64802583     0.13400
H1729       H  0.33602867  0.93974792  0.60195266     0.13300
H1730       H  0.31633008  0.96148050  0.60310578     0.12300
C1731       C  0.64565815  0.17791448  0.44965629     0.18700
C1732       C  0.63752662  0.19246690  0.44753766    -0.10500
C1733       C  0.63758729  0.20404417  0.45980814    -0.11300
C1734       C  0.64577840  0.20112656  0.47425677     0.20200
C1735       C  0.65392210  0.18658282  0.47636153    -0.13300
C1736       C  0.65386179  0.17501050  0.46409547    -0.11600
C1737       C  0.64579032  0.21300851  0.48692552     0.01200
C1738       C  0.64575517  0.22292564  0.49756285    -0.31600
C1739       C  0.64545940  0.16588762  0.43712843     0.02600
C1740       C  0.64521882  0.15559558  0.42685781    -0.33300
H1741       H  0.63112175  0.19483901  0.43643881     0.13600
H1742       H  0.63123838  0.21523741  0.45804580     0.13400
H1743       H  0.66028587  0.18418350  0.48747948     0.13300
H1744       H  0.66016998  0.16379645  0.46588209     0.12300
C1745       C  0.59801583  0.24129792  0.56600681     0.18700
C1746       C  0.58891703  0.22718137  0.56524667    -0.10500
C1747       C  0.57641061  0.22483118  0.57597327    -0.11300
C1748       C  0.57292344  0.23658648  0.58753359     0.20200
C1749       C  0.58200016  0.25072279  0.58827404    -0.13300
C1750       C  0.59451005  0.25307364  0.57754509    -0.11600
C1751       C  0.56004041  0.23422009  0.59860571     0.01200
C1752       C  0.54931599  0.23289025  0.60805388    -0.31600
C1753       C  0.61091874  0.24361436  0.55494853     0.02600
C1754       C  0.62155270  0.24492331  0.54538867    -0.33300
H1755       H  0.59149908  0.21799296  0.55637250     0.13600
H1756       H  0.56947812  0.21386754  0.57525685     0.13400
H1757       H  0.57940904  0.25991419  0.59714240     0.13300
H1758       H  0.60143764  0.26404122  0.57825295     0.12300
C1759       C  0.32794147  0.13611646  0.51418128     0.18700
C1760       C  0.33984247  0.13733920  0.50256335    -0.10500
C1761       C  0.35319478  0.14679739  0.50557629    -0.11300
C1762       C  0.35473480  0.15509744  0.52022465     0.20200
C1763       C  0.34298519  0.15361280  0.53198594    -0.13300
C1764       C  0.32962339  0.14414582  0.52897138    -0.11600
C1765       C  0.36784170  0.16591615  0.52269177     0.01200
C1766       C  0.37833002  0.17570574  0.52384990    -0.31600
C1767       C  0.31363160  0.12745383  0.51052671     0.02600
C1768       C  0.30127843  0.12111382  0.50703463    -0.33300
H1769       H  0.33864268  0.13127066  0.49105070     0.13600
H1770       H  0.36214464  0.14792436  0.49634806     0.13400
H1771       H  0.34398780  0.16004252  0.54331756     0.13300
H1772       H  0.32046454  0.14336962  0.53801528     0.12300
C1773       C  0.47429632  0.20980449  0.58881089     0.18700
C1774       C  0.45887040  0.21320051  0.59366558    -0.10500
C1775       C  0.44620524  0.21002742  0.58328815    -0.11300
C1776       C  0.44888102  0.20342410  0.56798595     0.20200
C1777       C  0.46429185  0.19982044  0.56320547    -0.13300
C1778       C  0.47697062  0.20299999  0.57359297    -0.11600
C1779       C  0.43591561  0.20108788  0.55693270     0.01200
C1780       C  0.42521131  0.20001711  0.54735474    -0.31600
C1781       C  0.48731882  0.21395705  0.59922729     0.02600
C1782       C  0.49761425  0.21840557  0.60827121    -0.33300
H1783       H  0.45665758  0.21852585  0.60537267     0.13600
H1784       H  0.43436543  0.21295000  0.58709397     0.13400
H1785       H  0.46652078  0.19479262  0.55137139     0.13300
H1786       H  0.48884276  0.20038206  0.56967436     0.12300
C1787       C  0.40013023  0.24854431  0.47968590     0.18700
C1788       C  0.41451811  0.25501333  0.47451274    -0.10500
C1789       C  0.41477104  0.26785374  0.46349263    -0.11300
C1790       C  0.40063575  0.27430855  0.45758418     0.20200
C1791       C  0.38624144  0.26780773  0.46271496    -0.13300
C1792       C  0.38598846  0.25495977  0.47374132    -0.11600
C1793       C  0.40092244  0.28754320  0.44623746     0.01200
C1794       C  0.40127299  0.29850799  0.43660735    -0.31600
C1795       C  0.39992566  0.23546571  0.49120985     0.02600
C1796       C  0.40007939  0.22466252  0.50102412    -0.33300
H1797       H  0.42552652  0.25016229  0.47902775     0.13600
H1798       H  0.42597150  0.27275711  0.45960160     0.13400
H1799       H  0.37523636  0.27267884  0.45821552     0.13300
H1800       H  0.37479187  0.25006685  0.47765552     0.12300
C1801       C  0.53407424  0.65363744  0.33251497     0.18700
C1802       C  0.52168185  0.64647695  0.32390328    -0.10500
C1803       C  0.52465410  0.63369120  0.31336715    -0.11300
C1804       C  0.54003623  0.62797370  0.31137126     0.20200
C1805       C  0.55242924  0.63505761  0.32006233    -0.13300
C1806       C  0.54945285  0.64785826  0.33061227    -0.11600
C1807       C  0.54302579  0.61507265  0.30016029     0.01200
C1808       C  0.54468697  0.60450534  0.29031898    -0.31600
C1809       C  0.53102294  0.66707033  0.34305690     0.02600
C1810       C  0.52841466  0.67848239  0.35165475    -0.33300
H1811       H  0.50975056  0.65084464  0.32525157     0.13600
H1812       H  0.51497834  0.62833681  0.30669585     0.13400
H1813       H  0.56437330  0.63076765  0.31860515     0.13300
H1814       H  0.55913523  0.65330947  0.33719151     0.12300
C1815       C  0.51146313  0.79523242  0.32479451     0.18700
C1816       C  0.50046862  0.78288249  0.32214758    -0.10500
C1817       C  0.50183439  0.76821023  0.33044258    -0.11300
C1818       C  0.51420572  0.76580022  0.34143203     0.20200
C1819       C  0.52508622  0.77822585  0.34424454    -0.13300
C1820       C  0.52372052  0.79290578  0.33594349    -0.11600
C1821       C  0.51604889  0.75039445  0.34933633     0.01200
C1822       C  0.51780616  0.73725053  0.35538435    -0.31600
C1823       C  0.51061775  0.80992167  0.31546378     0.02600
C1824       C  0.51035142  0.82172060  0.30688323    -0.33300
H1825       H  0.49099702  0.78450299  0.31349299     0.13600
H1826       H  0.49338778  0.75867505  0.32811820     0.13400
H1827       H  0.53473521  0.77648373  0.35266491     0.13300
H1828       H  0.53234487  0.80232891  0.33802605     0.12300
C1829       C  0.44356693  0.70395621  0.43259108     0.18700
C1830       C  0.45355918  0.71744500  0.43237825    -0.10500
C1831       C  0.46667769  0.71776059  0.42219838    -0.11300
C1832       C  0.46987459  0.70458474  0.41218107     0.20200
C1833       C  0.45988763  0.69109942  0.41240223    -0.13300
C1834       C  0.44677279  0.69078395  0.42257941    -0.11600
C1835       C  0.48336619  0.70484735  0.40167810     0.01200
C1836       C  0.49455638  0.70465598  0.39274710    -0.31600
C1837       C  0.43013456  0.70361318  0.44317750     0.02600
C1838       C  0.41916065  0.70373314  0.45239349    -0.33300
H1839       H  0.45121952  0.72769281  0.44008674     0.13600
H1840       H  0.47431436  0.72824819  0.42214419     0.13400
H1841       H  0.46224491  0.68083696  0.40471955     0.13300
H1842       H  0.43915763  0.68028106  0.42265585     0.12300
C1843       C  0.34667321  0.66265745  0.47862020     0.18700
C1844       C  0.33243405  0.66817615  0.48505294    -0.10500
C1845       C  0.32018069  0.65730837  0.48823094    -0.11300
C1846       C  0.32207499  0.64084518  0.48498884     0.20200
C1847       C  0.33624110  0.63534958  0.47835832    -0.13300
C1848       C  0.34850160  0.64622306  0.47517960    -0.11600
C1849       C  0.30979623  0.62952547  0.48915945     0.01200
C1850       C  0.29997521  0.61988270  0.49346758    -0.31600
C1851       C  0.35958030  0.67375712  0.47623813     0.02600
C1852       C  0.37034612  0.68323951  0.47513682    -0.33300
H1853       H  0.33089239  0.68083455  0.48783690     0.13600
H1854       H  0.30933098  0.66170252  0.49343648     0.13400
H1855       H  0.33789147  0.62264257  0.47587681     0.13300
H1856       H  0.35946850  0.64178750  0.47027505     0.12300
C1857       C  0.39798800  0.75244897  0.52092462     0.18700
C1858       C  0.38934997  0.75102487  0.53524471    -0.10500
C1859       C  0.39041399  0.76301535  0.54704337    -0.11300
C1860       C  0.40012250  0.77648292  0.54458059     0.20200
C1861       C  0.40880522  0.77789008  0.53028312    -0.13300
C1862       C  0.40774137  0.76589322  0.51847840    -0.11600
C1863       C  0.40103736  0.78888445  0.55667220     0.01200
C1864       C  0.40149330  0.79917506  0.56691712    -0.31600
C1865       C  0.39685699  0.74011803  0.50877210     0.02600
C1866       C  0.39604231  0.72976359  0.49860796    -0.33300
H1867       H  0.38178854  0.74067484  0.53727121     0.13600
H1868       H  0.38364828  0.76180923  0.55805355     0.13400
H1869       H  0.41634711  0.78825445  0.52825332     0.13300
H1870       H  0.41448818  0.76710617  0.50745697     0.12300
C1871       C  0.64043988  0.65972589  0.55482552     0.18700
C1872       C  0.62591579  0.66528844  0.54899608    -0.10500
C1873       C  0.62540105  0.67737227  0.53715361    -0.11300
C1874       C  0.63940930  0.68394810  0.53109426     0.20200
C1875       C  0.65392704  0.67835580  0.53690001    -0.13300
C1876       C  0.65444155  0.66627696  0.54873672    -0.11600
C1877       C  0.63891728  0.69650473  0.51903120     0.01200
C1878       C  0.63866254  0.70710622  0.50901305    -0.31600
C1879       C  0.64099054  0.64737770  0.56709780     0.02600
C1880       C  0.64151336  0.63711020  0.57744691    -0.33300
H1881       H  0.61501488  0.66031682  0.55362350     0.13600
H1882       H  0.61410823  0.68160841  0.53276073     0.13400
H1883       H  0.66483041  0.68335726  0.53231039     0.13300
H1884       H  0.66573619  0.66207654  0.55316011     0.12300
C1885       C  0.56895131  0.72214834  0.41693777     0.18700
C1886       C  0.56525804  0.72952791  0.43165120    -0.10500
C1887       C  0.57712707  0.73257213  0.44304049    -0.11300
C1888       C  0.59273896  0.72825906  0.43975835     0.20200
C1889       C  0.59642552  0.72099100  0.42499716    -0.13300
C1890       C  0.58457362  0.71795102  0.41362498    -0.11600
C1891       C  0.60488674  0.73068284  0.45172483     0.01200
C1892       C  0.61507372  0.73181340  0.46186888    -0.31600
C1893       C  0.55674791  0.71845341  0.40537774     0.02600
C1894       C  0.54698406  0.71464403  0.39546810    -0.33300
H1895       H  0.55321404  0.73277520  0.43437361     0.13600
H1896       H  0.57411423  0.73811754  0.45444689     0.13400
H1897       H  0.60842696  0.71751850  0.42235433     0.13300
H1898       H  0.58756417  0.71218618  0.40232068     0.12300
C1899       C  0.84831402  0.95911850  0.30645920     0.18700
C1900       C  0.83924719  0.94499329  0.30737751    -0.10500
C1901       C  0.82886630  0.94262499  0.32027792    -0.11300
C1902       C  0.82750874  0.95436956  0.33233282     0.20200
C1903       C  0.83665636  0.96843939  0.33146245    -0.13300
C1904       C  0.84702808  0.97080636  0.31857108    -0.11600
C1905       C  0.81641743  0.95228481  0.34532470     0.01200
C1906       C  0.80683595  0.95132106  0.35602101    -0.31600
C1907       C  0.85868770  0.96178488  0.29295918     0.02600
C1908       C  0.86718197  0.96433068  0.28156524    -0.33300
H1909       H  0.84011203  0.93588676  0.29806899     0.13600
H1910       H  0.82181605  0.93172712  0.32077723     0.13400
H1911       H  0.83566779  0.97763620  0.34066898     0.13300
H1912       H  0.85394341  0.98179162  0.31798117     0.12300
C1913       C  0.71499650  0.02135661  0.37802312     0.18700
C1914       C  0.71875983  0.01276695  0.36401103    -0.10500
C1915       C  0.73044523  0.00089986  0.36447611    -0.11300
C1916       C  0.73842803  0.99755990  0.37895392     0.20200
C1917       C  0.73467544  0.00615903  0.39296179    -0.13300
C1918       C  0.72299106  0.01802602  0.39249641    -0.11600
C1919       C  0.75044394  0.98532548  0.37942838     0.01200
C1920       C  0.76050374  0.97507724  0.37973622    -0.31600
C1921       C  0.70299186  0.03360650  0.37755123     0.02600
C1922       C  0.69302675  0.04395392  0.37723652    -0.33300
H1923       H  0.71267309  0.01524334  0.35274797     0.13600
H1924       H  0.73325067  0.99433729  0.35356727     0.13400
H1925       H  0.74077092  0.00369115  0.40422195     0.13300
H1926       H  0.72019586  0.02459735  0.40340256     0.12300
C1927       C  0.81824387  0.01649082  0.63163379     0.18700
C1928       C  0.80386785  0.02058977  0.63877875    -0.10500
C1929       C  0.79087918  0.01024885  0.63735940    -0.11300
C1930       C  0.79221531  0.99576949  0.62878086     0.20200
C1931       C  0.80659824  0.99167164  0.62167538    -0.13300
C1932       C  0.81956995  0.00199880  0.62309370    -0.11600
C1933       C  0.77889432  0.98509181  0.62718129     0.01200
C1934       C  0.76809877  0.97575482  0.62549787    -0.31600
C1935       C  0.83158059  0.02720179  0.63285330     0.02600
C1936       C  0.84278788  0.03615276  0.63348956    -0.33300
H1937       H  0.80269350  0.03177669  0.64538900     0.13600
H1938       H  0.77981919  0.01354857  0.64290344     0.13400
H1939       H  0.80777155  0.98051438  0.61501277     0.13300
H1940       H  0.83060811  0.99871106  0.61749571     0.12300
C1941       C  0.68493668  0.77671220  0.48947596     0.18700
C1942       C  0.69924858  0.77135575  0.49602508    -0.10500
C1943       C  0.71184609  0.78210260  0.49791589    -0.11300
C1944       C  0.71022639  0.79829301  0.49328004     0.20200
C1945       C  0.69592084  0.80366494  0.48670960    -0.13300
C1946       C  0.68330642  0.79290416  0.48481664    -0.11600
C1947       C  0.72326375  0.80931061  0.49525403     0.01200
C1948       C  0.73441392  0.81822447  0.49695503    -0.31600
C1949       C  0.67196654  0.76557346  0.48770067     0.02600
C1950       C  0.66146492  0.75577346  0.48669578    -0.33300
H1951       H  0.70065965  0.75887910  0.49969052     0.13600
H1952       H  0.72283768  0.77779316  0.50299877     0.13400
H1953       H  0.69452017  0.81614843  0.48306867     0.13300
H1954       H  0.67230395  0.79720361  0.47975461     0.12300
C1955       C  0.75663180  0.88596347  0.54874206     0.18700
C1956       C  0.76937861  0.89411236  0.55581609    -0.10500
C1957       C  0.76675167  0.90567246  0.56782381    -0.11300
C1958       C  0.75136875  0.90914588  0.57282864     0.20200
C1959       C  0.73863709  0.90112420  0.56561662    -0.13300
C1960       C  0.74125957  0.88958476  0.55362611    -0.11600
C1961       C  0.74865541  0.92072600  0.58550926     0.01200
C1962       C  0.74667258  0.93037217  0.59622173    -0.31600
C1963       C  0.75917626  0.87367097  0.53671352     0.02600
C1964       C  0.76015066  0.86309358  0.52675882    -0.33300
H1965       H  0.78131833  0.89144606  0.55215292     0.13600
H1966       H  0.77670363  0.91180096  0.57328554     0.13400
H1967       H  0.72669699  0.90369604  0.56934780     0.13300
H1968       H  0.73130180  0.88338609  0.54825400     0.12300
C1969       C  0.78097595  0.90558039  0.42724088     0.18700
C1970       C  0.77804072  0.91030625  0.44318957    -0.10500
C1971       C  0.77552029  0.89865864  0.45519645    -0.11300
C1972       C  0.77592043  0.88221749  0.45132876     0.20200
C1973       C  0.77898417  0.87748526  0.43540901    -0.13300
C1974       C  0.78150695  0.88913584  0.42339957    -0.11600
C1975       C  0.77269691  0.87026579  0.46358203     0.01200
C1976       C  0.76937792  0.86045512  0.47383460    -0.31600
C1977       C  0.78287643  0.91758643  0.41474179     0.02600
C1978       C  0.78377745  0.92770761  0.40425727    -0.33300
H1979       H  0.77752962  0.92297851  0.44630075     0.13600
H1980       H  0.77309768  0.90246854  0.46744391     0.13400
H1981       H  0.77925801  0.86481585  0.43225374     0.13300
H1982       H  0.78369539  0.88533162  0.41110400     0.12300
C1983       C  0.81871716  0.80639468  0.50999471     0.18700
C1984       C  0.83088771  0.80781008  0.49867301    -0.10500
C1985       C  0.84440552  0.79824090  0.50014147    -0.11300
C1986       C  0.84584007  0.78719019  0.51293782     0.20200
C1987       C  0.83370801  0.78585477  0.52429720    -0.13300
C1988       C  0.82020582  0.79541295  0.52283056    -0.11600
C1989       C  0.85944563  0.77681588  0.51412677     0.01200
C1990       C  0.87036937  0.76751491  0.51484955    -0.31600
C1991       C  0.80443478  0.81565994  0.50812698     0.02600
C1992       C  0.79196755  0.82246913  0.50642034    -0.33300
H1993       H  0.82985171  0.81616309  0.48862846     0.13600
H1994       H  0.85364520  0.79933263  0.49121656     0.13400
H1995       H  0.83460930  0.77730151  0.53418563     0.13300
H1996       H  0.81085042  0.79410699  0.53160072     0.12300
C1997       C  0.89273105  0.67247477  0.44625692     0.18700
C1998       C  0.90001072  0.66961570  0.46121892    -0.10500
C1999       C  0.90027448  0.68167749  0.47300906    -0.11300
C2000       C  0.89325801  0.69666311  0.46989805     0.20200
C2001       C  0.88596637  0.69951362  0.45494210    -0.13300
C2002       C  0.88570304  0.68745412  0.44315367    -0.11600
C2003       C  0.89355515  0.70911876  0.48200305     0.01200
C2004       C  0.89375760  0.71964270  0.49204025    -0.31600
C2005       C  0.89249423  0.66006469  0.43410603     0.02600
C2006       C  0.89232965  0.64964510  0.42396157    -0.33300
H2007       H  0.90548229  0.65808398  0.46375895     0.13600
H2008       H  0.90594765  0.67932867  0.48452302     0.13400
H2009       H  0.88050329  0.71104833  0.45239605     0.13300
H2010       H  0.88003918  0.68980855  0.43163588     0.12300
C2011       C  0.96910842  0.73727541  0.57806545     0.18700
C2012       C  0.97034344  0.73530199  0.56131196    -0.10500
C2013       C  0.95720156  0.73770861  0.55134921    -0.11300
C2014       C  0.94271184  0.74211955  0.55804847     0.20200
C2015       C  0.94147410  0.74417065  0.57480735    -0.13300
C2016       C  0.95463932  0.74176174  0.58478664    -0.11600
C2017       C  0.92912037  0.74408316  0.54769053     0.01200
C2018       C  0.91816096  0.74490742  0.53836820    -0.31600
C2019       C  0.98264733  0.73450005  0.58829386     0.02600
C2020       C  0.99409894  0.73195096  0.59661917    -0.33300
H2021       H  0.98144060  0.73181678  0.55596108     0.13600
H2022       H  0.95831310  0.73602271  0.53842913     0.13400
H2023       H  0.93033728  0.74751933  0.58015549     0.13300
H2024       H  0.95351777  0.74330685  0.59772287     0.12300
C2025       C  0.19915722  0.65903889  0.51840622     0.18700
C2026       C  0.21416245  0.66247799  0.52462416    -0.10500
C2027       C  0.22671570  0.65196200  0.52177085    -0.11300
C2028       C  0.22437828  0.63793828  0.51264443     0.20200
C2029       C  0.20934238  0.63441115  0.50654136    -0.13300
C2030       C  0.19677774  0.64493762  0.50939488    -0.11600
C2031       C  0.23737549  0.62714259  0.50972894     0.01200
C2032       C  0.24835047  0.61806641  0.50801640    -0.31600
C2033       C  0.18641512  0.67029663  0.52074605     0.02600
C2034       C  0.17614982  0.68028070  0.52203676    -0.33300
H2035       H  0.21618703  0.67335220  0.53155938     0.13600
H2036       H  0.23825442  0.65480238  0.52661903     0.13400
H2037       H  0.20735152  0.62358076  0.49952895     0.13300
H2038       H  0.18525780  0.64215295  0.50446992     0.12300
C2039       C  0.07753807  0.71281476  0.58331856     0.18700
C2040       C  0.07713170  0.70231242  0.57007867    -0.10500
C2041       C  0.09068505  0.69978079  0.56085459    -0.11300
C2042       C  0.10476517  0.70772596  0.56479492     0.20200
C2043       C  0.10521654  0.71812436  0.57812070    -0.13300
C2044       C  0.09165262  0.72065783  0.58735231    -0.11600
C2045       C  0.11848875  0.70577386  0.55472904     0.01200
C2046       C  0.12954459  0.70480832  0.54562967    -0.31600
C2047       C  0.06334966  0.71590822  0.59236599     0.02600
C2048       C  0.05108750  0.71865124  0.59918545    -0.33300
H2049       H  0.06629257  0.69622945  0.56677157     0.13600
H2050       H  0.09013046  0.69179524  0.55053318     0.13400
H2051       H  0.11598692  0.72442507  0.58124575     0.13300
H2052       H  0.09212522  0.72886331  0.59750140     0.12300
C2053       C  0.15245648  0.77362529  0.45035959     0.18700
C2054       C  0.13911092  0.77071736  0.45984373    -0.10500
C2055       C  0.13970487  0.75941707  0.47243498    -0.11300
C2056       C  0.15365074  0.75096427  0.47562297     0.20200
C2057       C  0.16701206  0.75389492  0.46616365    -0.13300
C2058       C  0.16641817  0.76520027  0.45356867    -0.11600
C2059       C  0.15414746  0.73912473  0.48841557     0.01200
C2060       C  0.15426478  0.72899909  0.49893207    -0.31600
C2061       C  0.15185276  0.78532977  0.43744562     0.02600
C2062       C  0.15143555  0.79532496  0.42681096    -0.33300
H2063       H  0.12825963  0.77717054  0.45749987     0.13600
H2064       H  0.12929230  0.75724024  0.47964643     0.13400
H2065       H  0.17785360  0.74741991  0.46849391     0.13300
H2066       H  0.17682139  0.76736142  0.44633898     0.12300
C2067       C  0.20214079  0.94698390  0.83319684     0.18700
C2068       C  0.20347439  0.93654051  0.81999476    -0.10500
C2069       C  0.19418371  0.93893609  0.80619117    -0.11300
C2070       C  0.18350407  0.95178709  0.80550668     0.20200
C2071       C  0.18194842  0.96204142  0.81882912    -0.13300
C2072       C  0.19123832  0.95964463  0.83263504    -0.11600
C2073       C  0.17496323  0.95507270  0.79077493     0.01200
C2074       C  0.16886997  0.95837489  0.77799031    -0.31600
C2075       C  0.21260435  0.94533819  0.84686655     0.02600
C2076       C  0.22200169  0.94476625  0.85783524    -0.33300
H2077       H  0.21192523  0.92677405  0.82023411     0.13600
H2078       H  0.19557678  0.93099601  0.79592897     0.13400
H2079       H  0.17381876  0.97208592  0.81840689     0.13300
H2080       H  0.19016565  0.96786284  0.84271754     0.12300
C2081       C  0.21568092  0.98966854  0.67207366     0.18700
C2082       C  0.21536544  0.97416430  0.67889274    -0.10500
C2083       C  0.20487121  0.97056633  0.69138910    -0.11300
C2084       C  0.19464548  0.98246059  0.69713142     0.20200
C2085       C  0.19494855  0.99795342  0.69030061    -0.13300
C2086       C  0.20544529  0.00155267  0.67780189    -0.11600
C2087       C  0.18392502  0.97880844  0.71007898     0.01200
C2088       C  0.17502578  0.97574823  0.72099539    -0.31600
C2089       C  0.22667156  0.99337492  0.65938196     0.02600
C2090       C  0.23637709  0.99579098  0.64905300    -0.33300
H2091       H  0.22325770  0.96488893  0.67458666     0.13600
H2092       H  0.20475677  0.95855167  0.69659034     0.13400
H2093       H  0.18710763  0.00724577  0.69466176     0.13300
H2094       H  0.20561475  0.01358627  0.67265137     0.12300
C2095       C  0.03821787  0.77420744  0.65977870     0.18700
C2096       C  0.04111308  0.78990471  0.65414213    -0.10500
C2097       C  0.04312012  0.80259026  0.66509298    -0.11300
C2098       C  0.04223738  0.79966408  0.68175669     0.20200
C2099       C  0.03959275  0.78392145  0.68740016    -0.13300
C2100       C  0.03758358  0.77123545  0.67644808    -0.11600
C2101       C  0.04336816  0.81286771  0.69303021     0.01200
C2102       C  0.04360731  0.82381121  0.70263052    -0.31600
C2103       C  0.03501011  0.76139177  0.64846609     0.02600
C2104       C  0.03129170  0.75113456  0.63884050    -0.33300
H2105       H  0.04153871  0.79238426  0.64128919     0.13600
H2106       H  0.04509758  0.81470441  0.66056641     0.13400
H2107       H  0.03882450  0.78150314  0.70024661     0.13300
H2108       H  0.03526194  0.75918208  0.68096634     0.12300
C2109       C  0.10949738  0.91960153  0.73655575     0.18700
C2110       C  0.11006225  0.90502676  0.74516137    -0.10500
C2111       C  0.09893352  0.89293403  0.74210464    -0.11300
C2112       C  0.08718398  0.89532287  0.73040839     0.20200
C2113       C  0.08662772  0.90989140  0.72177135    -0.13300
C2114       C  0.09776713  0.92199311  0.72482905    -0.11600
C2115       C  0.07553029  0.88295469  0.72761568     0.01200
C2116       C  0.06567024  0.87254470  0.72614316    -0.31600
C2117       C  0.12106972  0.93198753  0.73958111     0.02600
C2118       C  0.13092940  0.94229990  0.74159352    -0.33300
H2119       H  0.11909114  0.90301583  0.75422304     0.13600
H2120       H  0.09945625  0.88174756  0.74889607     0.13400
H2121       H  0.07757582  0.91190899  0.71273582     0.13300
H2122       H  0.09723469  0.93319657  0.71806620     0.12300
C2123       C  0.97244556  0.85074483  0.79424766     0.18700
C2124       C  0.96970996  0.85761465  0.77899152    -0.10500
C2125       C  0.98144178  0.85719275  0.76716394    -0.11300
C2126       C  0.99596536  0.84989731  0.77052789     0.20200
C2127       C  0.99870645  0.84306960  0.78579420    -0.13300
C2128       C  0.98698252  0.84349109  0.79761383    -0.11600
C2129       C  0.00805685  0.84942832  0.75836333     0.01200
C2130       C  0.01830251  0.84907032  0.74830801    -0.31600
C2131       C  0.96036558  0.85105712  0.80643396     0.02600
C2132       C  0.95037123  0.85116719  0.81676215    -0.33300
H2133       H  0.95852465  0.86326438  0.77624075     0.13600
H2134       H  0.97918894  0.86253053  0.75541449     0.13400
H2135       H  0.00988819  0.83741422  0.78855041     0.13300
H2136       H  0.98924164  0.83814656  0.80935914     0.12300
C2137       C  0.11312080  0.01594190  0.76906532     0.18700
C2138       C  0.11753199  0.03223987  0.76963170    -0.10500
C2139       C  0.10653155  0.04399093  0.77396791    -0.11300
C2140       C  0.09106242  0.03950669  0.77777927     0.20200
C2141       C  0.08673527  0.02317719  0.77749169    -0.13300
C2142       C  0.09773166  0.01143050  0.77315549    -0.11600
C2143       C  0.07935605  0.05168074  0.78084098     0.01200
C2144       C  0.06904553  0.06160225  0.78201599    -0.31600
C2145       C  0.12416689  0.00395325  0.76366131     0.02600
C2146       C  0.13327008  0.99405237  0.75857525    -0.33300
H2147       H  0.12937830  0.03588608  0.76644341     0.13600
H2148       H  0.10999385  0.05657886  0.77402468     0.13400
H2149       H  0.07478507  0.01956423  0.78029071     0.13300
H2150       H  0.09416158  0.99888194  0.77271031     0.12300
C2151       C  0.03611402  0.13473166  0.82033008     0.18700
C2152       C  0.04577136  0.13961343  0.83320229    -0.10500
C2153       C  0.04224796  0.15369266  0.84178478    -0.11300
C2154       C  0.02904931  0.16294024  0.83753611     0.20200
C2155       C  0.01935400  0.15797421  0.82474913    -0.13300
C2156       C  0.02286881  0.14393045  0.81618687    -0.11600
C2157       C  0.02563658  0.17777474  0.84587100     0.01200
C2158       C  0.02255194  0.19059203  0.85196474    -0.31600
C2159       C  0.03977379  0.12047401  0.81113399     0.02600
C2160       C  0.04190077  0.10890293  0.80259268    -0.33300
H2161       H  0.05605288  0.13262150  0.83651765     0.13600
H2162       H  0.04986657  0.15743105  0.85161490     0.13400
H2163       H  0.00915359  0.16503601  0.82130680     0.13300
H2164       H  0.01531908  0.14030623  0.80625498     0.12300
C2165       C  0.99979145  0.07826254  0.73322358     0.18700
C2166       C  0.00193337  0.06798169  0.72000543    -0.10500
C2167       C  0.99053027  0.06720509  0.70776935    -0.11300
C2168       C  0.97693662  0.07670341  0.70870635     0.20200
C2169       C  0.97481198  0.08697425  0.72192536    -0.13300
C2170       C  0.98620222  0.08775008  0.73414675    -0.11600
C2171       C  0.96522721  0.07609657  0.69607727     0.01200
C2172       C  0.95529698  0.07614770  0.68561318    -0.31600
C2173       C  0.01153494  0.07919398  0.74579240     0.02600
C2174       C  0.02129006  0.08026858  0.75636766    -0.33300
H2175       H  0.01240777  0.06060897  0.71914863     0.13600
H2176       H  0.99232232  0.05924815  0.69758896     0.13400
H2177       H  0.96437302  0.09440287  0.72276314     0.13300
H2178       H  0.98443009  0.09576127  0.74428944     0.12300
C2179       C  0.49725648  0.84556566  0.72490273     0.18700
C2180       C  0.48162765  0.84843306  0.72941291    -0.10500
C2181       C  0.46971061  0.84864098  0.71769372    -0.11300
C2182       C  0.47339152  0.84597885  0.70143149     0.20200
C2183       C  0.48899959  0.84302545  0.69695004    -0.13300
C2184       C  0.50090323  0.84281944  0.70865546    -0.11600
C2185       C  0.46126360  0.84650645  0.68926730     0.01200
C2186       C  0.45145744  0.84710338  0.67872529    -0.31600
C2187       C  0.50958670  0.84562633  0.73687406     0.02600
C2188       C  0.52002105  0.84581731  0.74678518    -0.33300
H2189       H  0.47867986  0.85058115  0.74194484     0.13600
H2190       H  0.45767789  0.85095344  0.72128616     0.13400
H2191       H  0.49197168  0.84097022  0.68440739     0.13300
H2192       H  0.51294480  0.84060203  0.70503393     0.12300
C2193       C  0.69633172  0.95551449  0.66441029     0.18700
C2194       C  0.68596499  0.96865911  0.66418278    -0.10500
C2195       C  0.67583893  0.97132680  0.67722390    -0.11300
C2196       C  0.67601341  0.96085829  0.69056897     0.20200
C2197       C  0.68610697  0.94750320  0.69060959    -0.13300
C2198       C  0.69622699  0.94484117  0.67758428    -0.11600
C2199       C  0.66681476  0.96442781  0.70473879     0.01200
C2200       C  0.66049318  0.96761443  0.71737802    -0.31600
C2201       C  0.70782351  0.95363668  0.65174423     0.02600
C2202       C  0.71822174  0.95281144  0.64185781    -0.33300
H2203       H  0.68599416  0.97706476  0.65412772     0.13600
H2204       H  0.66818450  0.98176140  0.67708394     0.13400
H2205       H  0.68644976  0.93938829  0.70089726     0.13300
H2206       H  0.70424510  0.93470221  0.67797639     0.12300
C2207       C  0.58691579  0.89511916  0.76366609     0.18700
C2208       C  0.58122279  0.90908641  0.75605325    -0.10500
C2209       C  0.59123264  0.92226553  0.75340005    -0.11300
C2210       C  0.60701720  0.92156613  0.75832640     0.20200
C2211       C  0.61272257  0.90759584  0.76593317    -0.13300
C2212       C  0.60270589  0.89440685  0.76858790    -0.11600
C2213       C  0.61728990  0.93522782  0.75577621     0.01200
C2214       C  0.62596364  0.94667370  0.75408591    -0.31600
C2215       C  0.57652608  0.88156504  0.76629702     0.02600
C2216       C  0.56727770  0.87059308  0.76794119    -0.33300
H2217       H  0.56904666  0.90978836  0.75217609     0.13600
H2218       H  0.58666261  0.93299516  0.74754184     0.13400
H2219       H  0.62489252  0.90691354  0.76983175     0.13300
H2220       H  0.60726144  0.88368447  0.77446971     0.12300
C2221       C  0.53413968  0.17151030  0.66341727     0.18700
C2222       C  0.52292862  0.15910795  0.66251647    -0.10500
C2223       C  0.52428639  0.14550096  0.67249393    -0.11300
C2224       C  0.53685591  0.14421171  0.68344561     0.20200
C2225       C  0.54821520  0.15648563  0.68415284    -0.13300
C2226       C  0.54685771  0.17009459  0.67417214    -0.11600
C2227       C  0.53764440  0.13069996  0.69445971     0.01200
C2228       C  0.53761433  0.11971019  0.70408260    -0.31600
C2229       C  0.53208373  0.18608028  0.65405992     0.02600
C2230       C  0.52982909  0.19875062  0.64719372    -0.33300
H2231       H  0.51298857  0.16009760  0.65433462     0.13600
H2232       H  0.51538861  0.13613454  0.67187894     0.13400
H2233       H  0.55794751  0.15567394  0.69261266     0.13300
H2234       H  0.55554761  0.17964160  0.67506155     0.12300
C2235       C  0.60031183  0.02122143  0.73399201     0.18700
C2236       C  0.58764039  0.02256819  0.74469089    -0.10500
C2237       C  0.57668961  0.03502017  0.74278717    -0.11300
C2238       C  0.57834397  0.04622391  0.73017900     0.20200
C2239       C  0.59090747  0.04477021  0.71935283    -0.13300
C2240       C  0.60187082  0.03230654  0.72126043    -0.11600
C2241       C  0.56732301  0.05935144  0.72860227     0.01200
C2242       C  0.55797010  0.07027313  0.72778913    -0.31600
C2243       C  0.61209309  0.00898589  0.73663049     0.02600
C2244       C  0.62221008  0.99929076  0.73988878    -0.33300
H2245       H  0.58635245  0.01413233  0.75463216     0.13600
H2246       H  0.56704289  0.03601887  0.75124657     0.13400
H2247       H  0.59232346  0.05336199  0.70956727     0.13300
H2248       H  0.61166080  0.03144825  0.71296163     0.12300
C2249       C  0.46306344  0.09464600  0.79306852     0.18700
C2250       C  0.47704153  0.10303583  0.79639191    -0.10500
C2251       C  0.48930897  0.10311276  0.78515679    -0.11300
C2252       C  0.48767139  0.09479769  0.77053158     0.20200
C2253       C  0.47368190  0.08642723  0.76719065    -0.13300
C2254       C  0.46140994  0.08634998  0.77843060    -0.11600
C2255       C  0.50034670  0.09483350  0.75900189     0.01200
C2256       C  0.51100137  0.09488896  0.74939751    -0.31600
C2257       C  0.45050907  0.09444637  0.80473468     0.02600
C2258       C  0.44016062  0.09421983  0.81468272    -0.33300
H2259       H  0.47846593  0.10947974  0.80767066     0.13600
H2260       H  0.50006444  0.10962405  0.78787996     0.13400
H2261       H  0.47227631  0.07995177  0.75592801     0.13300
H2262       H  0.45066780  0.07980686  0.77572962     0.12300
C2263       C  0.34683836  0.77685819  0.98593506     0.18700
C2264       C  0.33321636  0.77685407  0.97632406    -0.10500
C2265       C  0.32099736  0.78765975  0.97957117    -0.11300
C2266       C  0.32232338  0.79851771  0.99245401     0.20200
C2267       C  0.33598611  0.79859387  0.00199662    -0.13300
C2268       C  0.34820208  0.78779268  0.99874989    -0.11600
C2269       C  0.30956272  0.80934398  0.99605681     0.01200
C2270       C  0.29870533  0.81816626  0.99914752    -0.31600
C2271       C  0.35920831  0.76535656  0.98300378     0.02600
C2272       C  0.36947723  0.75546570  0.98131397    -0.33300
H2273       H  0.33198860  0.76842225  0.96642584     0.13600
H2274       H  0.31048025  0.78746483  0.97212693     0.13400
H2275       H  0.33714095  0.80690485  0.01200688     0.13300
H2276       H  0.35864329  0.78787269  0.00630851     0.12300
C2277       C  0.39289204  0.66112636  0.05023628     0.18700
C2278       C  0.38050097  0.67218713  0.04895055    -0.10500
C2279       C  0.38050815  0.68377692  0.03661994    -0.11300
C2280       C  0.39290328  0.68436264  0.02550824     0.20200
C2281       C  0.40529345  0.67329373  0.02678359    -0.13300
C2282       C  0.40528571  0.66170009  0.03911873    -0.11600
C2283       C  0.39297628  0.69644448  0.01295458     0.01200
C2284       C  0.39296248  0.70684592  0.00272235    -0.31600
C2285       C  0.39289221  0.64921388  0.06294866     0.02600
C2286       C  0.39294808  0.63920513  0.07356387    -0.33300
H2287       H  0.37086199  0.67186290  0.05747934     0.13600
H2288       H  0.37088308  0.69229360  0.03577223     0.13400
H2289       H  0.41495476  0.67365170  0.01828270     0.13300
H2290       H  0.41493251  0.65321272  0.04000029     0.12300
C2291       C  0.64210471  0.77194147  0.06201255     0.18700
C2292       C  0.62756745  0.76866407  0.05462399    -0.10500
C2293       C  0.62639952  0.75666311  0.04280133    -0.11300
C2294       C  0.63976665  0.74788576  0.03831600     0.20200
C2295       C  0.65428504  0.75118200  0.04570787    -0.13300
C2296       C  0.65545109  0.76316509  0.05751221    -0.11600
C2297       C  0.63869977  0.73550402  0.02615971     0.01200
C2298       C  0.63848665  0.72503911  0.01605104    -0.31600
C2299       C  0.64339170  0.78431020  0.07415650     0.02600
C2300       C  0.64471015  0.79467743  0.08428157    -0.33300
H2301       H  0.61716449  0.77537622  0.05799182     0.13600
H2302       H  0.61510906  0.75423659  0.03717301     0.13400
H2303       H  0.66470186  0.74448937  0.04234302     0.13300
H2304       H  0.66675246  0.76558942  0.06312055     0.12300
C2305       C  0.53608704  0.77615834  0.83960157     0.18700
C2306       C  0.55069930  0.77776067  0.83193693    -0.10500
C2307       C  0.55318252  0.79020558  0.82073045    -0.11300
C2308       C  0.54106728  0.80111364  0.81713928     0.20200
C2309       C  0.52649604  0.79955829  0.82488657    -0.13300
C2310       C  0.52401564  0.78712702  0.83608047    -0.11600
C2311       C  0.54334425  0.81359456  0.80517528     0.01200
C2312       C  0.54441441  0.82381109  0.79479587    -0.31600
C2313       C  0.53329210  0.76305116  0.85073627     0.02600
C2314       C  0.53046444  0.75190698  0.85970875    -0.33300
H2315       H  0.56010581  0.76932131  0.83451394     0.13600
H2316       H  0.56447452  0.79123239  0.81477279     0.13400
H2317       H  0.51701223  0.80786321  0.82216424     0.13300
H2318       H  0.51265196  0.78598257  0.84187712     0.12300
C2319       C  0.44182950  0.73337360  0.93783042     0.18700
C2320       C  0.44251243  0.72181865  0.92553031    -0.10500
C2321       C  0.45600990  0.72048912  0.91597580    -0.11300
C2322       C  0.46893711  0.73068313  0.91866970     0.20200
C2323       C  0.46818911  0.74237180  0.93084977    -0.13300
C2324       C  0.45468484  0.74370073  0.94041060    -0.11600
C2325       C  0.48292058  0.72915659  0.90893320     0.01200
C2326       C  0.49449101  0.72819296  0.90054828    -0.31600
C2327       C  0.42823829  0.73413769  0.94821250     0.02600
C2328       C  0.41720174  0.73404034  0.95737389    -0.33300
H2329       H  0.43268390  0.71372822  0.92344097     0.13600
H2330       H  0.45640764  0.71144432  0.90657147     0.13400
H2331       H  0.47807276  0.75036831  0.93302624     0.13300
H2332       H  0.45433361  0.75265047  0.94990868     0.12300
C2333       C  0.59283084  0.70181102  0.94769407     0.18700
C2334       C  0.59056230  0.69100434  0.93488241    -0.10500
C2335       C  0.57835226  0.69354232  0.92370354    -0.11300
C2336       C  0.56835203  0.70688532  0.92530411     0.20200
C2337       C  0.57056544  0.71757226  0.93819079    -0.13300
C2338       C  0.58273799  0.71504546  0.94933144    -0.11600
C2339       C  0.55624513  0.71014725  0.91345227     0.01200
C2340       C  0.54652110  0.71419772  0.90355787    -0.31600
C2341       C  0.60562562  0.69967679  0.95903978     0.02600
C2342       C  0.61610895  0.69909538  0.96893928    -0.33300
H2343       H  0.59829602  0.68074029  0.93345357     0.13600
H2344       H  0.57682470  0.68523132  0.91374572     0.13400
H2345       H  0.56298782  0.72797490  0.93952097     0.13300
H2346       H  0.58437401  0.72350894  0.95914465     0.12300
C2347       C  0.82447454  0.14361469  0.99309453     0.18700
C2348       C  0.83053221  0.14692142  0.97769699    -0.10500
C2349       C  0.84426118  0.15613318  0.97600130    -0.11300
C2350       C  0.85204895  0.16209115  0.98969715     0.20200
C2351       C  0.84601245  0.15876608  0.00510906    -0.13300
C2352       C  0.83227023  0.14954410  0.00680627    -0.11600
C2353       C  0.86607189  0.17179922  0.98794262     0.01200
C2354       C  0.87759777  0.18028724  0.98680581    -0.31600
C2355       C  0.81038860  0.13398321  0.99469252     0.02600
C2356       C  0.79880406  0.12551339  0.99496717    -0.33300
H2357       H  0.82464052  0.14237447  0.96700326     0.13600
H2358       H  0.84877855  0.15863208  0.96402514     0.13400
H2359       H  0.85190644  0.16332442  0.01579518     0.13300
H2360       H  0.82773862  0.14704435  0.01877584     0.12300
C2361       C  0.69795969  0.16617097  0.02311363     0.18700
C2362       C  0.69665751  0.14949980  0.02571318    -0.10500
C2363       C  0.70909675  0.13924889  0.02160644    -0.11300
C2364       C  0.72292262  0.14559786  0.01487042     0.20200
C2365       C  0.72424947  0.16227609  0.01234760    -0.13300
C2366       C  0.71181752  0.17252172  0.01645331    -0.11600
C2367       C  0.73553456  0.13498067  0.01013134     0.01200
C2368       C  0.74575522  0.12595186  0.00562656    -0.31600
C2369       C  0.68493937  0.17672536  0.02671470     0.02600
C2370       C  0.67416193  0.18598077  0.02875791    -0.33300
H2371       H  0.68598764  0.14441753  0.03076354     0.13600
H2372       H  0.70788046  0.12637396  0.02354800     0.13400
H2373       H  0.73482812  0.16733942  0.00707941     0.13300
H2374       H  0.71295167  0.18537105  0.01429170     0.12300
C2375       C  0.71003038  0.99558555  0.82262903     0.18700
C2376       C  0.71019141  0.00502676  0.80853998    -0.10500
C2377       C  0.69900350  0.00236380  0.79635925    -0.11300
C2378       C  0.68760423  0.99024442  0.79820703     0.20200
C2379       C  0.68730941  0.98097355  0.81239475    -0.13300
C2380       C  0.69848648  0.98363385  0.82456432    -0.11600
C2381       C  0.67653245  0.98694413  0.78538707     0.01200
C2382       C  0.66744757  0.98369652  0.77462114    -0.31600
C2383       C  0.72202931  0.99768969  0.83481934     0.02600
C2384       C  0.73229517  0.99876692  0.84488932    -0.33300
H2385       H  0.71907707  0.01427694  0.80688149     0.13600
H2386       H  0.69936689  0.00959577  0.78543572     0.13400
H2387       H  0.67857462  0.97155544  0.81395484     0.13300
H2388       H  0.69826017  0.97622964  0.83537654     0.12300
C2389       C  0.76158663  0.06555525  0.94202671     0.18700
C2390       C  0.75430703  0.05053287  0.94430503    -0.10500
C2391       C  0.75270706  0.03984640  0.93135189    -0.11300
C2392       C  0.75837606  0.04411955  0.91604051     0.20200
C2393       C  0.76558600  0.05917871  0.91373522    -0.13300
C2394       C  0.76718718  0.06987172  0.92669701    -0.11600
C2395       C  0.75716241  0.03288207  0.90284230     0.01200
C2396       C  0.75655878  0.02314420  0.89205201    -0.31600
C2397       C  0.76361343  0.07632578  0.95550831     0.02600
C2398       C  0.76556257  0.08489997  0.96710285    -0.33300
H2399       H  0.74998130  0.04703802  0.95611105     0.13600
H2400       H  0.74716866  0.02821672  0.93330114     0.13400
H2401       H  0.77007002  0.06259293  0.90196976     0.13300
H2402       H  0.77288481  0.08142829  0.92479954     0.12300
C2403       C  0.82614246  0.93061128  0.86994362     0.18700
C2404       C  0.81824506  0.93533839  0.88397535    -0.10500
C2405       C  0.80660332  0.94722816  0.88317326    -0.11300
C2406       C  0.80279012  0.95445756  0.86833632     0.20200
C2407       C  0.81075855  0.94980977  0.85431430    -0.13300
C2408       C  0.82240726  0.93791464  0.85511708    -0.11600
C2409       C  0.79062312  0.96652160  0.86753599     0.01200
C2410       C  0.78034684  0.97654432  0.86726870    -0.31600
C2411       C  0.83792198  0.91815013  0.87072666     0.02600
C2412       C  0.84770029  0.90762551  0.87124259    -0.33300
H2413       H  0.82103073  0.92978458  0.89550371     0.13600
H2414       H  0.80053158  0.95072942  0.89409595     0.13400
H2415       H  0.80792238  0.95531840  0.84277747     0.13300
H2416       H  0.82843722  0.93436169  0.84418708     0.12300
C2417       C  0.78199787  0.06827758  0.05196161     0.18700
C2418       C  0.79672641  0.06113249  0.05464166    -0.10500
C2419       C  0.79884245  0.05030787  0.06749761    -0.11300
C2420       C  0.78623735  0.04655428  0.07773897     0.20200
C2421       C  0.77157417  0.05387301  0.07518551    -0.13300
C2422       C  0.76945978  0.06469186  0.06233692    -0.11600
C2423       C  0.78815274  0.03479358  0.09049168     0.01200
C2424       C  0.78933835  0.02458689  0.10087727    -0.31600
C2425       C  0.77949150  0.07850394  0.03805195     0.02600
C2426       C  0.77708773  0.08603756  0.02577878    -0.33300
H2427       H  0.80648524  0.06371677  0.04664337     0.13600
H2428       H  0.81022060  0.04469405  0.06930290     0.13400
H2429       H  0.76172173  0.05103360  0.08297538     0.13300
H2430       H  0.75799139  0.07004352  0.06033212     0.12300
C2431       C  0.85522349  0.98882359  0.19755628     0.18700
C2432       C  0.85817106  0.98181724  0.18248465    -0.10500
C2433       C  0.84850549  0.98545746  0.16922202    -0.11300
C2434       C  0.83584439  0.99612488  0.17095881     0.20200
C2435       C  0.83311729  0.00339942  0.18594335    -0.13300
C2436       C  0.84277612  0.99976326  0.19919474    -0.11600
C2437       C  0.82500958  0.99871794  0.15774527     0.01200
C2438       C  0.81521842  0.99992891  0.14719799    -0.31600
C2439       C  0.86433575  0.98416221  0.21155069     0.02600
C2440       C  0.87094452  0.98007584  0.22383821    -0.33300
H2441       H  0.86770811  0.97329138  0.18107427     0.13600
H2442       H  0.85067888  0.97967675  0.15772892     0.13400
H2443       H  0.82331431  0.01158225  0.18747591     0.13300
H2444       H  0.84032738  0.00520547  0.21079598     0.12300
C2445       C  0.72521026  0.92675835  0.12710690     0.18700
C2446       C  0.73477851  0.92858467  0.11345653    -0.10500
C2447       C  0.74586312  0.94110055  0.11275707    -0.11300
C2448       C  0.74743373  0.95185898  0.12569865     0.20200
C2449       C  0.73789990  0.94999211  0.13936227    -0.13300
C2450       C  0.72682417  0.93748609  0.14006149    -0.11600
C2451       C  0.75881479  0.96478132  0.12499237     0.01200
C2452       C  0.76839783  0.97555533  0.12458085    -0.31600
C2453       C  0.71366510  0.91399184  0.12784025     0.02600
C2454       C  0.70380482  0.90352376  0.12883832    -0.33300
H2455       H  0.73364901  0.92037132  0.10336406     0.13600
H2456       H  0.75317942  0.94240143  0.10213731     0.13400
H2457       H  0.73901248  0.95820979  0.14945395     0.13300
H2458       H  0.71950175  0.93620193  0.15067982     0.12300
C2459       C  0.85481122  0.27703082  0.49254063     0.18700
C2460       C  0.84414510  0.27859908  0.47966026    -0.10500
C2461       C  0.83107218  0.28876300  0.48105770    -0.11300
C2462       C  0.82859327  0.29740403  0.49534998     0.20200
C2463       C  0.83928088  0.29585887  0.50820233    -0.13300
C2464       C  0.85233904  0.28570662  0.50680659    -0.11600
C2465       C  0.81510783  0.30781170  0.49693442     0.01200
C2466       C  0.80400320  0.31665962  0.49885631    -0.31600
C2467       C  0.86810762  0.26631255  0.49128738     0.02600
C2468       C  0.87906055  0.25707131  0.49070610    -0.33300
H2469       H  0.84589753  0.27192478  0.46858518     0.13600
H2470       H  0.82289421  0.28984502  0.47103775     0.13400
H2471       H  0.83749297  0.30246483  0.51931450     0.13300
H2472       H  0.86046354  0.28457066  0.51686752     0.12300
C2473       C  0.69289417  0.28994335  0.52154935     0.18700
C2474       C  0.70331434  0.29210629  0.53454389    -0.10500
C2475       C  0.71689889  0.30152065  0.53261311    -0.11300
C2476       C  0.72013466  0.30882413  0.51767864     0.20200
C2477       C  0.70952615  0.30696204  0.50480690    -0.13300
C2478       C  0.69595375  0.29755715  0.50673581    -0.11600
C2479       C  0.73480737  0.31725837  0.51520039     0.01200
C2480       C  0.74751404  0.32326219  0.51258823    -0.31600
C2481       C  0.67960058  0.27917693  0.52304481     0.02600
C2482       C  0.66893019  0.26952870  0.52346993    -0.33300
H2483       H  0.70112624  0.28623009  0.54603400     0.13600
H2484       H  0.72504873  0.30278906  0.54263173     0.13400
H2485       H  0.71193310  0.31246063  0.49317698     0.13300
H2486       H  0.68803805  0.29592266  0.49657387     0.12300
C2487       C  0.68827347  0.45138706  0.30468928     0.18700
C2488       C  0.69832189  0.46384282  0.30971441    -0.10500
C2489       C  0.70777298  0.46186344  0.32345057    -0.11300
C2490       C  0.70726560  0.44740923  0.33227436     0.20200
C2491       C  0.69713029  0.43497665  0.32734203    -0.13300
C2492       C  0.68765792  0.43696051  0.31357446    -0.11600
C2493       C  0.71748003  0.44535182  0.34609218     0.01200
C2494       C  0.72677415  0.44469335  0.35715073    -0.31600
C2495       C  0.67915074  0.45326826  0.29006312     0.02600
C2496       C  0.67254137  0.45531117  0.27727551    -0.33300
H2497       H  0.69898096  0.47501490  0.30290922     0.13600
H2498       H  0.71559360  0.47154459  0.32709945     0.13400
H2499       H  0.69666528  0.42372631  0.33402724     0.13300
H2500       H  0.68000385  0.42720659  0.30976620     0.12300
C2501       C  0.75498487  0.40245334  0.42993441     0.18700
C2502       C  0.75734933  0.38604911  0.42671060    -0.10500
C2503       C  0.76035823  0.37523609  0.43938343    -0.11300
C2504       C  0.76102797  0.38075084  0.45536645     0.20200
C2505       C  0.75846411  0.39711815  0.45861395    -0.13300
C2506       C  0.75545342  0.40793410  0.44593822    -0.11600
C2507       C  0.76496967  0.36973477  0.46830005     0.01200
C2508       C  0.76896924  0.36037923  0.47875104    -0.31600
C2509       C  0.75266255  0.41373529  0.41681433     0.02600
C2510       C  0.75135781  0.42336577  0.40589945    -0.33300
H2511       H  0.75707371  0.38166059  0.41439855     0.13600
H2512       H  0.76237490  0.36262721  0.43670105     0.13400
H2513       H  0.75900444  0.40154933  0.47090240     0.13300
H2514       H  0.75370011  0.42059027  0.44859374     0.12300
C2515       C  0.81657074  0.51871152  0.37473244     0.18700
C2516       C  0.80852599  0.51338640  0.36092183    -0.10500
C2517       C  0.79722161  0.50113300  0.36217457    -0.11300
C2518       C  0.79391218  0.49415022  0.37724122     0.20200
C2519       C  0.80190740  0.49953234  0.39105015    -0.13300
C2520       C  0.81320263  0.51177784  0.38979860    -0.11600
C2521       C  0.78238676  0.48143243  0.37853243     0.01200
C2522       C  0.77272998  0.47077973  0.37952302    -0.31600
C2523       C  0.82839548  0.53113902  0.37347594     0.02600
C2524       C  0.83845302  0.54141513  0.37274730    -0.33300
H2525       H  0.81103028  0.51865310  0.34920776     0.13600
H2526       H  0.79110867  0.49707582  0.35141286     0.13400
H2527       H  0.79944624  0.49423396  0.40275961     0.13300
H2528       H  0.81934733  0.51579384  0.40055698     0.12300
C2529       C  0.72531917  0.51517903  0.63446689     0.18700
C2530       C  0.72269611  0.49927661  0.62944227    -0.10500
C2531       C  0.73528765  0.48852033  0.62832233    -0.11300
C2532       C  0.75056650  0.49361421  0.63221230     0.20200
C2533       C  0.75318759  0.50947926  0.63738673    -0.13300
C2534       C  0.74058165  0.52024869  0.63850702    -0.11600
C2535       C  0.76351952  0.48258302  0.63068922     0.01200
C2536       C  0.77416541  0.47311664  0.62926651    -0.31600
C2537       C  0.71239797  0.52634894  0.63506564     0.02600
C2538       C  0.70149524  0.53562756  0.63507212    -0.33300
H2539       H  0.71094918  0.49523862  0.62626815     0.13600
H2540       H  0.73313161  0.47627947  0.62431851     0.13400
H2541       H  0.76495830  0.51353927  0.64043538     0.13300
H2542       H  0.74274397  0.53252821  0.64238600     0.12300
C2543       C  0.78600510  0.38187115  0.55581026     0.18700
C2544       C  0.79613403  0.37809969  0.56869391    -0.10500
C2545       C  0.79885784  0.38935491  0.58097508    -0.11300
C2546       C  0.79147981  0.40445288  0.58043177     0.20200
C2547       C  0.78127910  0.40817886  0.56760010    -0.13300
C2548       C  0.77855703  0.39692900  0.55532480    -0.11600
C2549       C  0.79434456  0.41615474  0.59296870     0.01200
C2550       C  0.79622956  0.42629889  0.60323451    -0.31600
C2551       C  0.78356891  0.37045240  0.54292612     0.02600
C2552       C  0.78216107  0.36085181  0.53207819    -0.33300
H2553       H  0.80198971  0.36651042  0.56919107     0.13600
H2554       H  0.80674932  0.38631762  0.59083470     0.13400
H2555       H  0.77548676  0.41979976  0.56705189     0.13300
H2556       H  0.77073117  0.40000412  0.54542161     0.12300
C2557       C  0.34259371  0.49419231  0.68267214     0.18700
C2558       C  0.35567788  0.48395463  0.68197302    -0.10500
C2559       C  0.36473537  0.48108811  0.69584694    -0.11300
C2560       C  0.36074768  0.48843879  0.71048717     0.20200
C2561       C  0.34781361  0.49887800  0.71112250    -0.13300
C2562       C  0.33875959  0.50174410  0.69725306    -0.11600
C2563       C  0.36942297  0.48468525  0.72500767     0.01200
C2564       C  0.37599663  0.48107804  0.73744694    -0.31600
C2565       C  0.33253271  0.49613887  0.66875056     0.02600
C2566       C  0.32337457  0.49686720  0.65759578    -0.33300
H2567       H  0.35868880  0.47795554  0.67079961     0.13600
H2568       H  0.37465704  0.47292943  0.69522913     0.13400
H2569       H  0.34456505  0.50456238  0.72239121     0.13300
H2570       H  0.32860489  0.50958797  0.69797226     0.12300
C2571       C  0.35470807  0.45482310  0.81821067     0.18700
C2572       C  0.35846476  0.44337993  0.83013003    -0.10500
C2573       C  0.34779616  0.44006401  0.84258616    -0.11300
C2574       C  0.33334796  0.44818164  0.84314093     0.20200
C2575       C  0.32962042  0.45957938  0.83119702    -0.13300
C2576       C  0.34025742  0.46288624  0.81877967    -0.11600
C2577       C  0.32231686  0.44509002  0.85596613     0.01200
C2578       C  0.31241862  0.44356341  0.86627469    -0.31600
C2579       C  0.36556364  0.45841160  0.80536302     0.02600
C2580       C  0.37404047  0.46201072  0.79425385    -0.33300
H2581       H  0.36961019  0.43706838  0.82980679     0.13600
H2582       H  0.35081456  0.43123944  0.85176830     0.13400
H2583       H  0.31850067  0.46594381  0.83151059     0.13300
H2584       H  0.33722606  0.47175069  0.80963634     0.12300
C2585       C  0.50816173  0.64143517  0.82473359     0.18700
C2586       C  0.51162767  0.63901471  0.84114971    -0.10500
C2587       C  0.51328702  0.65225933  0.85150935    -0.11300
C2588       C  0.51147380  0.66798471  0.84549671     0.20200
C2589       C  0.50792874  0.67037144  0.82910929    -0.13300
C2590       C  0.50627648  0.65715722  0.81877243    -0.11600
C2591       C  0.51368559  0.68177516  0.85585806     0.01200
C2592       C  0.51591972  0.69412941  0.86321753    -0.31600
C2593       C  0.50679949  0.62789108  0.81389904     0.02600
C2594       C  0.50586238  0.61689513  0.80439924    -0.33300
H2595       H  0.51315063  0.62692194  0.84590348     0.13600
H2596       H  0.51609489  0.65024926  0.86413489     0.13400
H2597       H  0.50656781  0.68246385  0.82429376     0.13300
H2598       H  0.50363784  0.65920558  0.80611285     0.12300
C2599       C  0.57102845  0.58453879  0.70984722     0.18700
C2600       C  0.55813550  0.59489700  0.70793362    -0.10500
C2601       C  0.54687659  0.59613543  0.72015825    -0.11300
C2602       C  0.54845363  0.58702999  0.73437084     0.20200
C2603       C  0.56125893  0.57654232  0.73621581    -0.13300
C2604       C  0.57252242  0.57530382  0.72398692    -0.11600
C2605       C  0.53700977  0.58855098  0.74708046     0.01200
C2606       C  0.52733060  0.58982396  0.75762944    -0.31600
C2607       C  0.58289317  0.58371015  0.69748528     0.02600
C2608       C  0.59290523  0.58347372  0.68718970    -0.33300
H2609       H  0.55685923  0.60210335  0.69706106     0.13600
H2610       H  0.53701424  0.60425994  0.71857772     0.13400
H2611       H  0.56258756  0.56941787  0.74713494     0.13300
H2612       H  0.58244230  0.56726118  0.72560798     0.12300
C2613       C  0.43505467  0.52287466  0.77519811     0.18700
C2614       C  0.44478589  0.52307431  0.78891274    -0.10500
C2615       C  0.45589509  0.53540134  0.79094899    -0.11300
C2616       C  0.45732102  0.54761166  0.77928852     0.20200
C2617       C  0.44753415  0.54745785  0.76561083    -0.13300
C2618       C  0.43642308  0.53512694  0.76357369    -0.11600
C2619       C  0.46914708  0.55998494  0.78106433     0.01200
C2620       C  0.47943292  0.57002020  0.78188743    -0.31600
C2621       C  0.42374410  0.51006360  0.77307855     0.02600
C2622       C  0.41437862  0.49917641  0.77176982    -0.33300
H2623       H  0.44383603  0.51366548  0.79798130     0.13600
H2624       H  0.46343550  0.53534736  0.80153632     0.13400
H2625       H  0.44857287  0.55679403  0.75647821     0.13300
H2626       H  0.42896933  0.53510311  0.75292209     0.12300
C2627       C  0.50962075  0.28139077  0.66961362     0.18700
C2628       C  0.49917989  0.27965016  0.68257719    -0.10500
C2629       C  0.49669439  0.29250950  0.69317052    -0.11300
C2630       C  0.50462828  0.30717400  0.69083781     0.20200
C2631       C  0.51492090  0.30897086  0.67776010    -0.13300
C2632       C  0.51740602  0.29611598  0.66717207    -0.11600
C2633       C  0.50275809  0.32013100  0.70221781     0.01200
C2634       C  0.50197297  0.33078195  0.71207332    -0.31600
C2635       C  0.51268272  0.26795832  0.65910170     0.02600
C2636       C  0.51553040  0.25660967  0.65051772    -0.33300
H2637       H  0.49311839  0.26831060  0.68460163     0.13600
H2638       H  0.48876258  0.29095378  0.70327877     0.13400
H2639       H  0.52117328  0.32022568  0.67587714     0.13300
H2640       H  0.52552748  0.29759213  0.65721190     0.12300
C2641       C  0.43699379  0.42691440  0.74534248     0.18700
C2642       C  0.43355868  0.41472640  0.73416269    -0.10500
C2643       C  0.44471780  0.40278425  0.73088088    -0.11300
C2644       C  0.45934426  0.40298734  0.73877491     0.20200
C2645       C  0.46286940  0.41535021  0.74971750    -0.13300
C2646       C  0.45172846  0.42727415  0.75299275    -0.11600
C2647       C  0.47047572  0.39015708  0.73631290     0.01200
C2648       C  0.47994359  0.37938767  0.73532129    -0.31600
C2649       C  0.42516349  0.43849718  0.74973235     0.02600
C2650       C  0.41534282  0.44776839  0.75456167    -0.33300
H2651       H  0.42217320  0.41427964  0.72823698     0.13600
H2652       H  0.44184120  0.39325270  0.72244080     0.13400
H2653       H  0.47411198  0.41559783  0.75594053     0.13300
H2654       H  0.45448479  0.43658318  0.76172156     0.12300
C2655       C  0.57130676  0.35404596  0.80592749     0.18700
C2656       C  0.57111183  0.34214639  0.79395012    -0.10500
C2657       C  0.55921972  0.34208481  0.78221771    -0.11300
C2658       C  0.54747561  0.35392045  0.78242005     0.20200
C2659       C  0.54765158  0.36579825  0.79442105    -0.13300
C2660       C  0.55954394  0.36585972  0.80615330    -0.11600
C2661       C  0.53534966  0.35397084  0.77023514     0.01200
C2662       C  0.52529978  0.35411946  0.75991575    -0.31600
C2663       C  0.58356039  0.35413355  0.81796995     0.02600
C2664       C  0.59379411  0.35417328  0.82809259    -0.33300
H2665       H  0.58014905  0.33295210  0.79367144     0.13600
H2666       H  0.55920055  0.33285318  0.77298428     0.13400
H2667       H  0.53863390  0.37501310  0.79468074     0.13300
H2668       H  0.55958324  0.37511107  0.81536717     0.12300
C2669       C  0.00353939  0.27425081  0.82832470     0.18700
C2670       C  0.01037044  0.28913820  0.83226346    -0.10500
C2671       C  0.00777635  0.30262424  0.82240150    -0.11300
C2672       C  0.99831667  0.30130662  0.80855806     0.20200
C2673       C  0.99135288  0.28645835  0.80470099    -0.13300
C2674       C  0.99394699  0.27296528  0.81456970    -0.11600
C2675       C  0.99656255  0.31492151  0.79783761     0.01200
C2676       C  0.99631704  0.32601780  0.78836921    -0.31600
C2677       C  0.00654279  0.26029411  0.83829046     0.02600
C2678       C  0.00919845  0.24873046  0.84676641    -0.33300
H2679       H  0.01781900  0.29027748  0.84285604     0.13600
H2680       H  0.01331961  0.31400747  0.82543968     0.13400
H2681       H  0.98411394  0.28526252  0.79396378     0.13300
H2682       H  0.98861357  0.26151633  0.81139450     0.12300
C2683       C  0.04934285  0.34902545  0.72445535     0.18700
C2684       C  0.06428925  0.34537905  0.73066770    -0.10500
C2685       C  0.07734903  0.34520894  0.72043452    -0.11300
C2686       C  0.07549804  0.34868357  0.70395882     0.20200
C2687       C  0.06054136  0.35226719  0.69774427    -0.13300
C2688       C  0.04748816  0.35243838  0.70797275    -0.11600
C2689       C  0.08891781  0.34871730  0.69342478     0.01200
C2690       C  0.09994055  0.34895155  0.68431176    -0.31600
C2691       C  0.03594399  0.34937631  0.73500274     0.02600
C2692       C  0.02480148  0.34971864  0.74394936    -0.33300
H2693       H  0.06584462  0.34272364  0.74340137     0.13600
H2694       H  0.08886531  0.34242689  0.72536037     0.13400
H2695       H  0.05898703  0.35497471  0.68502130     0.13300
H2696       H  0.03598163  0.35527375  0.70305242     0.12300
C2697       C  0.01265515  0.64817465  0.68171770     0.18700
C2698       C  0.01891817  0.64541306  0.66633185    -0.10500
C2699       C  0.02097520  0.65825461  0.65549759    -0.11300
C2700       C  0.01680883  0.67396207  0.65997739     0.20200
C2701       C  0.01057045  0.67673898  0.67537828    -0.13300
C2702       C  0.00851297  0.66389046  0.68621937    -0.11600
C2703       C  0.01853443  0.68712467  0.64863923     0.01200
C2704       C  0.01929188  0.69805474  0.63897130    -0.31600
C2705       C  0.01071321  0.63491827  0.69291090     0.02600
C2706       C  0.00960984  0.62376508  0.70228697    -0.33300
H2707       H  0.02220297  0.63333769  0.66271094     0.13600
H2708       H  0.02575353  0.65592712  0.64361764     0.13400
H2709       H  0.00724692  0.68881023  0.67897647     0.13300
H2710       H  0.00369492  0.66620565  0.69808495     0.12300
C2711       C  0.07519731  0.59169152  0.79713160     0.18700
C2712       C  0.07459319  0.60546552  0.78728306    -0.10500
C2713       C  0.06366960  0.60640067  0.77462555    -0.11300
C2714       C  0.05328376  0.59356746  0.77173853     0.20200
C2715       C  0.05389601  0.57976864  0.78156682    -0.13300
C2716       C  0.06483010  0.57883216  0.79423519    -0.11600
C2717       C  0.04188770  0.59467213  0.75884350     0.01200
C2718       C  0.03217027  0.59572955  0.74822385    -0.31600
C2719       C  0.08644575  0.59082315  0.81018159     0.02600
C2720       C  0.09599219  0.59044863  0.82100897    -0.33300
H2721       H  0.08254258  0.61548325  0.78940688     0.13600
H2722       H  0.06329070  0.61713637  0.76712842     0.13400
H2723       H  0.04590737  0.56977855  0.77946757     0.13300
H2724       H  0.06518259  0.56812214  0.80177014     0.12300
C2725       C  0.84528727  0.45781655  0.67035420     0.18700
C2726       C  0.84920954  0.44582874  0.68164340    -0.10500
C2727       C  0.85896028  0.44952090  0.69479717    -0.11300
C2728       C  0.86482862  0.46521951  0.69672961     0.20200
C2729       C  0.86106613  0.47715323  0.68533046    -0.13300
C2730       C  0.85132181  0.47346181  0.67218028    -0.11600
C2731       C  0.87405297  0.46925725  0.71079343     0.01200
C2732       C  0.88098004  0.47270068  0.72305945    -0.31600
C2733       C  0.83430402  0.45439554  0.65749847     0.02600
C2734       C  0.82420776  0.45243035  0.64739833    -0.33300
H2735       H  0.84450788  0.43372949  0.68043976     0.13600
H2736       H  0.86170201  0.44022154  0.70359375     0.13400
H2737       H  0.86544148  0.48935615  0.68675540     0.13300
H2738       H  0.84826094  0.48286707  0.66361015     0.12300
C2739       C  0.95910433  0.40104299  0.76056888     0.18700
C2740       C  0.95531671  0.40683822  0.74510156    -0.10500
C2741       C  0.94546554  0.42024168  0.74330665    -0.11300
C2742       C  0.93938179  0.42790882  0.75697880     0.20200
C2743       C  0.94323266  0.42215502  0.77243496    -0.13300
C2744       C  0.95307291  0.40876331  0.77422826    -0.11600
C2745       C  0.92899972  0.44151103  0.75526325     0.01200
C2746       C  0.92001195  0.45273431  0.75473245    -0.31600
C2747       C  0.96923879  0.38725294  0.76241863     0.02600
C2748       C  0.97798675  0.37587768  0.76369576    -0.33300
H2749       H  0.95994878  0.40098395  0.73445344     0.13600
H2750       H  0.94255724  0.42457835  0.73129897     0.13400
H2751       H  0.93858214  0.42798592  0.78308882     0.13300
H2752       H  0.95594949  0.40441823  0.78624117     0.12300
C2753       C  0.96340403  0.55228049  0.72773213     0.18700
C2754       C  0.95654747  0.54346307  0.71508926    -0.10500
C2755       C  0.94545933  0.53136829  0.71846894    -0.11300
C2756       C  0.94120950  0.52804476  0.73449979     0.20200
C2757       C  0.94811793  0.53683216  0.74710380    -0.13300
C2758       C  0.95916956  0.54889046  0.74373475    -0.11600
C2759       C  0.92971483  0.51575835  0.73818030     0.01200
C2760       C  0.92013064  0.50582489  0.74234785    -0.31600
C2761       C  0.97490150  0.56470627  0.72451448     0.02600
C2762       C  0.98487491  0.57503591  0.72326311    -0.33300
H2763       H  0.95975970  0.54593171  0.70266875     0.13600
H2764       H  0.94020254  0.52464805  0.70861929     0.13400
H2765       H  0.94494053  0.53437689  0.75954049     0.13300
H2766       H  0.96441691  0.55557746  0.75361619     0.12300
C2767       C  0.69023086  0.66058788  0.99454001     0.18700
C2768       C  0.68948719  0.64533541  0.00188816    -0.10500
C2769       C  0.70310169  0.63593438  0.00345332    -0.11300
C2770       C  0.71756898  0.64173051  0.99771512     0.20200
C2771       C  0.71829580  0.65695722  0.99031452    -0.13300
C2772       C  0.70468633  0.66635435  0.98874912    -0.11600
C2773       C  0.73158107  0.63195994  0.99912838     0.01200
C2774       C  0.74320113  0.62357512  0.99964292    -0.31600
C2775       C  0.67628794  0.67047521  0.99326459     0.02600
C2776       C  0.66489923  0.67917863  0.99262378    -0.33300
H2777       H  0.67840735  0.64073805  0.00644907     0.13600
H2778       H  0.70234739  0.62416225  0.00913211     0.13400
H2779       H  0.72937502  0.66156245  0.98575872     0.13300
H2780       H  0.70544622  0.67812938  0.98307572     0.12300
C2781       C  0.86093473  0.49052301  0.80626235     0.18700
C2782       C  0.85760641  0.50591180  0.81230274    -0.10500
C2783       C  0.84694304  0.50770358  0.82501877    -0.11300
C2784       C  0.83958326  0.49410675  0.83172681     0.20200
C2785       C  0.84303129  0.47872106  0.82577388    -0.13300
C2786       C  0.85367726  0.47693237  0.81307813    -0.11600
C2787       C  0.82822105  0.49584064  0.84444843     0.01200
C2788       C  0.81833558  0.49639846  0.85483794    -0.31600
C2789       C  0.87140481  0.48864454  0.79277858     0.02600
C2790       C  0.87970263  0.48658741  0.78118653    -0.33300
H2791       H  0.86312532  0.51650482  0.80708944     0.13600
H2792       H  0.84433819  0.51965965  0.82950906     0.13400
H2793       H  0.83738249  0.46813028  0.83084845     0.13300
H2794       H  0.85613027  0.46498287  0.80847507     0.12300
C2795       C  0.72588221  0.42530039  0.87767957     0.18700
C2796       C  0.74114059  0.42077550  0.87322087    -0.10500
C2797       C  0.75327937  0.43221667  0.87315208    -0.11300
C2798       C  0.75018151  0.44820523  0.87754578     0.20200
C2799       C  0.73492734  0.45270590  0.88200008    -0.13300
C2800       C  0.72280630  0.44128231  0.88206771    -0.11600
C2801       C  0.76257048  0.46005608  0.87749791     0.01200
C2802       C  0.77254313  0.47041450  0.87762286    -0.31600
C2803       C  0.71337282  0.41358636  0.87786298     0.02600
C2804       C  0.70271360  0.40398243  0.87825950    -0.33300
H2805       H  0.74364199  0.40843747  0.86982224     0.13600
H2806       H  0.76503921  0.42861254  0.86968974     0.13400
H2807       H  0.73241197  0.46503594  0.88541994     0.13300
H2808       H  0.71105500  0.44490023  0.88554967     0.12300
C2809       C  0.78366073  0.56280475  0.94986643     0.18700
C2810       C  0.77931382  0.54662089  0.95199381    -0.10500
C2811       C  0.78204397  0.53542925  0.93972733    -0.11300
C2812       C  0.78914891  0.54036090  0.92527469     0.20200
C2813       C  0.79359307  0.55652425  0.92317873    -0.13300
C2814       C  0.79086043  0.56772700  0.93545760    -0.11600
C2815       C  0.79155068  0.52887788  0.91252130     0.01200
C2816       C  0.79299687  0.51899019  0.90198762    -0.31600
C2817       C  0.78066106  0.57429164  0.96247686     0.02600
C2818       C  0.77799482  0.58339518  0.97345621    -0.33300
H2819       H  0.77375889  0.54267844  0.96309510     0.13600
H2820       H  0.77853888  0.52296820  0.94147010     0.13400
H2821       H  0.79907493  0.56047061  0.91204300     0.13300
H2822       H  0.79428848  0.58020578  0.93369624     0.12300
C2823       C  0.69715783  0.47515571  0.19545760     0.18700
C2824       C  0.69464748  0.46970042  0.17964004    -0.10500
C2825       C  0.70551648  0.47340481  0.16748209    -0.11300
C2826       C  0.71895384  0.48259676  0.17106926     0.20200
C2827       C  0.72143349  0.48807666  0.18687948    -0.13300
C2828       C  0.71057392  0.48437483  0.19902649    -0.11600
C2829       C  0.73033199  0.48619071  0.15864728     0.01200
C2830       C  0.74019802  0.48897564  0.14853188    -0.31600
C2831       C  0.68608335  0.47124751  0.20806598     0.02600
C2832       C  0.67714160  0.46817310  0.21897258    -0.33300
H2833       H  0.68433390  0.46255402  0.17672408     0.13600
H2834       H  0.70347785  0.46905736  0.15532259     0.13400
H2835       H  0.73178609  0.49515215  0.18982722     0.13300
H2836       H  0.71266257  0.48865387  0.21120334     0.12300
C2837       C  0.76484331  0.56703160  0.05773926     0.18700
C2838       C  0.77816250  0.56352414  0.06715514    -0.10500
C2839       C  0.77728906  0.55200001  0.07953506    -0.11300
C2840       C  0.76309756  0.54388649  0.08256639     0.20200
C2841       C  0.74973802  0.54751005  0.07325980    -0.13300
C2842       C  0.75061160  0.55903635  0.06087906    -0.11600
C2843       C  0.76244052  0.53142312  0.09476997     0.01200
C2844       C  0.76240985  0.52057285  0.10455307    -0.31600
C2845       C  0.76604281  0.57798473  0.04420298     0.02600
C2846       C  0.76738334  0.58587286  0.03198552    -0.33300
H2847       H  0.78927525  0.56948871  0.06474879     0.13600
H2848       H  0.78772722  0.54924393  0.08657402     0.13400
H2849       H  0.73872491  0.54126000  0.07541133     0.13300
H2850       H  0.74027344  0.56150949  0.05358359     0.12300
C2851       C  0.83819226  0.43047160  0.12345944     0.18700
C2852       C  0.83328940  0.43799583  0.10911167    -0.10500
C2853       C  0.82105306  0.44927304  0.10937644    -0.11300
C2854       C  0.81366821  0.45306881  0.12399011     0.20200
C2855       C  0.81867103  0.44564367  0.13834600    -0.13300
C2856       C  0.83089644  0.43437792  0.13808145    -0.11600
C2857       C  0.80077465  0.46432253  0.12425846     0.01200
C2858       C  0.78979178  0.47350959  0.12469126    -0.31600
C2859       C  0.85045267  0.41850342  0.12319014     0.02600
C2860       C  0.86045328  0.40819762  0.12332880    -0.33300
H2861       H  0.83883113  0.43505679  0.09773218     0.13600
H2862       H  0.81727744  0.45492748  0.09819766     0.13400
H2863       H  0.81304399  0.44846950  0.14971107     0.13300
H2864       H  0.83457340  0.42862486  0.14924545     0.12300
C2865       C  0.03657772  0.64344075  0.18073121     0.18700
C2866       C  0.02877130  0.64199391  0.16584986    -0.10500
C2867       C  0.02676820  0.65555208  0.15591613    -0.11300
C2868       C  0.03256521  0.67060738  0.16082877     0.20200
C2869       C  0.04065110  0.67196911  0.17555422    -0.13300
C2870       C  0.04265035  0.65842932  0.18547505    -0.11600
C2871       C  0.02950729  0.68484735  0.15129911     0.01200
C2872       C  0.02660498  0.69735999  0.14443141    -0.31600
C2873       C  0.03747746  0.62986550  0.19161169     0.02600
C2874       C  0.03742398  0.61906183  0.20141819    -0.33300
H2875       H  0.02394645  0.63048521  0.16209829     0.13600
H2876       H  0.02043306  0.65436647  0.14459547     0.13400
H2877       H  0.04511534  0.68355940  0.17951927     0.13300
H2878       H  0.04862082  0.65971972  0.19699211     0.12300
C2879       C  0.00416309  0.80594187  0.18931485     0.18700
C2880       C  0.99126006  0.79733929  0.18313043    -0.10500
C2881       C  0.99365524  0.78448115  0.17247550    -0.11300
C2882       C  0.00896322  0.78015474  0.16794903     0.20200
C2883       C  0.02184552  0.78876130  0.17413677    -0.13300
C2884       C  0.01945429  0.80160095  0.18477620    -0.11600
C2885       C  0.01150551  0.76681997  0.15711000     0.01200
C2886       C  0.01382487  0.75552946  0.14824807    -0.31600
C2887       C  0.00184249  0.81909944  0.20043426     0.02600
C2888       C  0.00071111  0.83002257  0.20998636    -0.33300
H2889       H  0.97938195  0.80053838  0.18656744     0.13600
H2890       H  0.98359568  0.77790147  0.16780703     0.13400
H2891       H  0.03373397  0.78552257  0.17076948     0.13300
H2892       H  0.02953102  0.80811817  0.18949535     0.12300
C2893       C  0.81963380  0.64696353  0.01651928     0.18700
C2894       C  0.83379688  0.64454169  0.00824938    -0.10500
C2895       C  0.84651455  0.65503733  0.01061552    -0.11300
C2896       C  0.84519208  0.66804767  0.02128189     0.20200
C2897       C  0.83105910  0.67044336  0.02963964    -0.13300
C2898       C  0.81831246  0.65992327  0.02726854    -0.11600
C2899       C  0.85822770  0.67909147  0.02324015     0.01200
C2900       C  0.86928050  0.68826881  0.02396328    -0.31600
C2901       C  0.80648757  0.63626095  0.01364346     0.02600
C2902       C  0.79615337  0.62683931  0.01015786    -0.33300
H2903       H  0.83497124  0.63459869  0.99988125     0.13600
H2904       H  0.85733917  0.65307669  0.00403518     0.13400
H2905       H  0.82985885  0.68048677  0.03787811     0.13300
H2906       H  0.80742582  0.66195379  0.03371307     0.12300
C2907       C  0.96974675  0.71248950  0.08620026     0.18700
C2908       C  0.96723440  0.69764340  0.07851278    -0.10500
C2909       C  0.95428580  0.69560880  0.06813685    -0.11300
C2910       C  0.94380502  0.70840731  0.06543525     0.20200
C2911       C  0.94632610  0.72318802  0.07318486    -0.13300
C2912       C  0.95922616  0.72521590  0.08351660    -0.11600
C2913       C  0.93064927  0.70671026  0.05447587     0.01200
C2914       C  0.91968041  0.70663943  0.04513960    -0.31600
C2915       C  0.98302470  0.71490299  0.09685307     0.02600
C2916       C  0.99356054  0.71837413  0.10605163    -0.33300
H2917       H  0.97527820  0.68770307  0.08049144     0.13600
H2918       H  0.95249664  0.68412945  0.06218289     0.13400
H2919       H  0.93835501  0.73318658  0.07117118     0.13300
H2920       H  0.96102713  0.73674298  0.08938217     0.12300
C2921       C  0.89694241  0.77683052  0.94930297     0.18700
C2922       C  0.88521591  0.77770975  0.96113422    -0.10500
C2923       C  0.88512028  0.76673977  0.97403526    -0.11300
C2924       C  0.89675597  0.75482693  0.97518701     0.20200
C2925       C  0.90850768  0.75397421  0.96338001    -0.13300
C2926       C  0.90860295  0.76494502  0.95047770    -0.11600
C2927       C  0.89647531  0.74330936  0.98828857     0.01200
C2928       C  0.89608601  0.73338527  0.99899589    -0.31600
C2929       C  0.89704430  0.78817221  0.93604434     0.02600
C2930       C  0.89707823  0.79788685  0.92513765    -0.33300
H2931       H  0.87614767  0.78685207  0.96037339     0.13600
H2932       H  0.87595705  0.76750931  0.98306539     0.13400
H2933       H  0.91755066  0.74480421  0.96411813     0.13300
H2934       H  0.91774042  0.76414870  0.94142300     0.12300
C2935       C  0.06909184  0.73190556  0.08389144     0.18700
C2936       C  0.06728211  0.74133541  0.06991682    -0.10500
C2937       C  0.07984150  0.74324179  0.05917315    -0.11300
C2938       C  0.09430660  0.73575018  0.06234300     0.20200
C2939       C  0.09606734  0.72616401  0.07622399    -0.13300
C2940       C  0.08350116  0.72425791  0.08697479    -0.11600
C2941       C  0.10729859  0.73788799  0.05135360     0.01200
C2942       C  0.11802833  0.73939797  0.04193163    -0.31600
C2943       C  0.05634591  0.73056735  0.09529253     0.02600
C2944       C  0.04574870  0.73017885  0.10496971    -0.33300
H2945       H  0.05621644  0.74733099  0.06740672     0.13600
H2946       H  0.07830559  0.75063189  0.04846075     0.13400
H2947       H  0.10716785  0.72025770  0.07878314     0.13300
H2948       H  0.08506306  0.71695726  0.09774430     0.12300
C2949       C  0.18852781  0.78645142  0.01918777     0.18700
C2950       C  0.19041015  0.79637269  0.00556682    -0.10500
C2951       C  0.20374155  0.80624428  0.00411775    -0.11300
C2952       C  0.21527124  0.80625956  0.01628555     0.20200
C2953       C  0.21328090  0.79649842  0.02999700    -0.13300
C2954       C  0.19995740  0.78663121  0.03144480    -0.11600
C2955       C  0.22952999  0.81555523  0.01432816     0.01200
C2956       C  0.24199541  0.82231922  0.01239954    -0.31600
C2957       C  0.17533346  0.77549143  0.02019202     0.02600
C2958       C  0.16482888  0.76564423  0.02046276    -0.33300
H2959       H  0.18171783  0.79626998  0.99595370     0.13600
H2960       H  0.20518746  0.81363935  0.99340238     0.13400
H2961       H  0.22215654  0.79630515  0.03943099     0.13300
H2962       H  0.19870427  0.77894577  0.04198020     0.12300
C2963       C  0.14550491  0.69484080  0.97286059     0.18700
C2964       C  0.15753025  0.68330963  0.97347124    -0.10500
C2965       C  0.15805376  0.67098984  0.96197845    -0.11300
C2966       C  0.14655271  0.67014684  0.94982674     0.20200
C2967       C  0.13456770  0.68171940  0.94917548    -0.13300
C2968       C  0.13404404  0.69403754  0.96066712    -0.11600
C2969       C  0.14698164  0.65737492  0.93809660     0.01200
C2970       C  0.14721219  0.64669513  0.92824804    -0.31600
C2971       C  0.14479704  0.70734200  0.98486323     0.02600
C2972       C  0.14407431  0.71765415  0.99506953    -0.33300
H2973       H  0.16644360  0.68380487  0.98285609     0.13600
H2974       H  0.16737304  0.66210674  0.96259784     0.13400
H2975       H  0.12561397  0.68118400  0.93983325     0.13300
H2976       H  0.12468411  0.70287831  0.96008891     0.12300
loop_ 
_geom_bond_atom_site_label_1 
_geom_bond_atom_site_label_2 
_geom_bond_distance 
_geom_bond_site_symmetry_2 
_ccdc_geom_bond_type 
C1            N2   1.357       .  A
C1            N6   1.360       .  A
C1         C2958   1.439       .  S
N2            C3   1.356       .  A
C3            N4   1.356       .  A
C3         C2972   1.435   1_554  S
N4            C5   1.357       .  A
C5            N6   1.360       .  A
C5         C2942   1.439       .  S
C7            N8   1.360       .  A
C7           N12   1.358       .  A
C7         C2914   1.440       .  S
N8            C9   1.360       .  A
C9           N10   1.358       .  A
C9         C2900   1.440       .  S
N10          C11   1.357       .  A
C11          N12   1.357       .  A
C11        C2928   1.438   1_554  S
C13          C14   1.535       .  S
C13          C19   1.532       .  S
C13          C17   1.533       .  S
C13        C2886   1.472       .  S
C14          H21   1.087       .  S
C14          C15   1.365       .  D
C15          C16   1.539       .  S
C15        C2944   1.444       .  S
C16          C20   1.539       .  S
C16          C18   1.539       .  S
C16          H22   1.112       .  S
C17          H23   1.087   1_455  S
C17          C18   1.365       .  D
C18        C2916   1.444   1_455  S
C19          H24   1.087       .  S
C19          C20   1.364       .  D
C20        C2872   1.442       .  S
C25          N26   1.356       .  A
C25          N30   1.357       .  A
C25        C2858   1.437       .  S
N26          C27   1.357       .  A
C27          N28   1.360       .  A
C27        C2844   1.439       .  S
N28          C29   1.360       .  A
C29          N30   1.358       .  A
C29        C2830   1.439       .  S
C31          N32   1.357       .  A
C31          N36   1.358       .  A
C31        C2788   1.435       .  S
N32          C33   1.356       .  A
C33          N34   1.356       .  A
C33        C2802   1.434       .  S
N34          C35   1.357       .  A
C35          N36   1.358       .  A
C35        C2816   1.435       .  S
C37          C38   1.532       .  S
C37          C43   1.530   1_556  S
C37          C41   1.532       .  S
C37        C2818   1.468       .  S
C38          H45   1.087       .  S
C38          C39   1.365       .  D
C39          C40   1.544   1_556  S
C39        C2774   1.447       .  S
C40          C44   1.542       .  S
C40          C42   1.542       .  S
C40          H46   1.111       .  S
C41          H47   1.087       .  S
C41          C42   1.364   1_556  D
C42        C2902   1.445       .  S
C43          H48   1.087       .  S
C43          C44   1.362       .  D
C44        C2846   1.444       .  S
C49          C50   1.533       .  S
C49          C55   1.532       .  S
C49          C53   1.533       .  S
C49        C2790   1.467       .  S
C50          H57   1.087       .  S
C50          C51   1.363       .  D
C51          C52   1.538       .  S
C51        C2746   1.441       .  S
C52          C56   1.538       .  S
C52          C54   1.539       .  S
C52          H58   1.112       .  S
C53          H59   1.087       .  S
C53          C54   1.365       .  D
C54        C2760   1.443       .  S
C55          H60   1.087       .  S
C55          C56   1.363       .  D
C56        C2732   1.442       .  S
C61          N62   1.361   1_455  A
C61          N66   1.358       .  A
C61        C2706   1.440       .  S
N62          C63   1.360       .  A
C63          N64   1.357   1_655  A
C63        C2762   1.438       .  S
N64          C65   1.356       .  A
C65          N66   1.357       .  A
C65        C2718   1.437       .  S
C67          N68   1.356   1_655  A
C67          N72   1.359       .  A
C67        C2676   1.436       .  S
N68          C69   1.355       .  A
C69          N70   1.356       .  A
C69        C2692   1.433       .  S
N70          C71   1.357   1_455  A
C71          N72   1.360       .  A
C71        C2748   1.436       .  S
C73          N74   1.356       .  A
C73          N78   1.356       .  A
C73        C2662   1.435       .  S
N74          C75   1.357       .  A
C75          N76   1.359       .  A
C75        C2634   1.436       .  S
N76          C77   1.359       .  A
C77          N78   1.357       .  A
C77        C2648   1.436       .  S
C79          N80   1.356       .  A
C79          N84   1.358       .  A
C79        C2606   1.437       .  S
N80          C81   1.356       .  A
C81          N82   1.359       .  A
C81        C2620   1.437       .  S
N82          C83   1.359       .  A
C83          N84   1.359       .  A
C83        C2594   1.439       .  S
C85          C86   1.533       .  S
C85          C91   1.533       .  S
C85          C89   1.534       .  S
C85        C2580   1.468       .  S
C86          H93   1.087       .  S
C86          C87   1.364       .  D
C87          C88   1.538       .  S
C87        C2650   1.441       .  S
C88          C92   1.538       .  S
C88          C90   1.538       .  S
C88          H94   1.112       .  S
C89          H95   1.087       .  S
C89          C90   1.364       .  D
C90        C2622   1.442       .  S
C91          H96   1.087       .  S
C91          C92   1.364       .  D
C92        C2564   1.442       .  S
C97          N98   1.360       .  A
C97         N102   1.356       .  A
C97        C2734   1.436       .  S
N98          C99   1.360       .  A
C99         N100   1.357       .  A
C99        C2550   1.438       .  S
N100        C101   1.356       .  A
C101        N102   1.355       .  A
C101       C2536   1.434       .  S
C103        N104   1.355       .  A
C103        N108   1.357       .  A
C103       C2522   1.437       .  S
N104        C105   1.357       .  A
C105        N106   1.360       .  A
C105       C2494   1.438       .  S
N106        C107   1.360       .  A
C107        N108   1.358       .  A
C107       C2510   1.439       .  S
C109        C110   1.534       .  S
C109        C115   1.534       .  S
C109        C113   1.533       .  S
C109       C2466   1.471       .  S
C110        H117   1.087       .  S
C110        C111   1.365       .  D
C111        C112   1.540       .  S
C111       C2508   1.445       .  S
C112        C116   1.539       .  S
C112        C114   1.540       .  S
C112        H118   1.112       .  S
C113        H119   1.087       .  S
C113        C114   1.363       .  D
C114       C2552   1.444       .  S
C115        H120   1.087       .  S
C115        C116   1.365       .  D
C116       C2480   1.444       .  S
C121        N122   1.360       .  A
C121        N126   1.359       .  A
C121       C2424   1.439       .  S
N122        C123   1.359       .  A
C123        N124   1.357   1_545  A
C123       C2438   1.438   1_545  S
N124        C125   1.356       .  A
C125        N126   1.357   1_565  A
C125       C2452   1.438       .  S
C127        N128   1.357   1_545  A
C127        N132   1.359       .  A
C127       C2396   1.437       .  S
N128        C129   1.356       .  A
C129        N130   1.357       .  A
C129       C2410   1.437       .  S
N130        C131   1.358       .  A
C131        N132   1.359   1_565  A
C131       C2384   1.438       .  S
C133        C134   1.533       .  S
C133        C139   1.532       .  S
C133        C137   1.532       .  S
C133       C2398   1.469       .  S
C134        H141   1.087       .  S
C134        C135   1.365       .  D
C135        C136   1.542   1_556  S
C135       C2368   1.446   1_556  S
C136        C140   1.540       .  S
C136        C138   1.541   1_554  S
C136        H142   1.111       .  S
C137        H143   1.087       .  S
C137        C138   1.364       .  D
C138       C2356   1.444       .  S
C139        H144   1.087       .  S
C139        C140   1.363   1_556  D
C140       C2426   1.444       .  S
C145        C146   1.533       .  S
C145        C151   1.532       .  S
C145        C149   1.533       .  S
C145       C2314   1.470       .  S
C146        H153   1.087       .  S
C146        C147   1.364       .  D
C147        C148   1.542       .  S
C147       C2326   1.445       .  S
C148        C152   1.540       .  S
C148        C150   1.541       .  S
C148        H154   1.111       .  S
C149        H155   1.087       .  S
C149        C150   1.365       .  D
C150       C2340   1.445       .  S
C151        H156   1.087       .  S
C151        C152   1.363       .  D
C152       C2592   1.444       .  S
C157        N158   1.360       .  A
C157        N162   1.358       .  A
C157       C2342   1.440       .  S
N158        C159   1.360       .  A
C159        N160   1.358   1_556  A
C159       C2776   1.441       .  S
N160        C161   1.357       .  A
C161        N162   1.357   1_554  A
C161       C2298   1.438       .  S
C163        N164   1.357       .  A
C163        N168   1.356       .  A
C163       C2284   1.436   1_556  S
N164        C165   1.358       .  A
C165        N166   1.360       .  A
C165       C2328   1.439       .  S
N166        C167   1.360       .  A
C167        N168   1.357       .  A
C167       C2272   1.438       .  S
C169        N170   1.358       .  A
C169        N174   1.359       .  A
C169       C2228   1.439       .  S
N170        C171   1.357       .  A
C171        N172   1.357       .  A
C171       C2256   1.437       .  S
N172        C173   1.358       .  A
C173        N174   1.359       .  A
C173       C2242   1.438       .  S
C175        C176   1.532       .  S
C175        C181   1.533       .  S
C175        C179   1.534       .  S
C175       C2382   1.470       .  S
C176        H183   1.087   1_565  S
C176        C177   1.364       .  D
C177        C178   1.540       .  S
C177       C2244   1.443       .  S
C178        C182   1.540       .  S
C178        C180   1.540       .  S
C178        H184   1.111       .  S
C179        H185   1.087       .  S
C179        C180   1.364       .  D
C180       C2214   1.445       .  S
C181        H186   1.087       .  S
C181        C182   1.364       .  D
C182       C2200   1.445       .  S
C187        N188   1.360       .  A
C187        N192   1.357       .  A
C187       C2312   1.438       .  S
N188        C189   1.360       .  A
C189        N190   1.357       .  A
C189       C2216   1.439       .  S
N190        C191   1.356       .  A
C191        N192   1.356       .  A
C191       C2188   1.435       .  S
C193        N194   1.355       .  A
C193        N198   1.356       .  A
C193       C2174   1.436       .  S
N194        C195   1.357       .  A
C195        N196   1.360       .  A
C195       C2144   1.438       .  S
N196        C197   1.360       .  A
C197        N198   1.357       .  A
C197       C2160   1.439       .  S
C199        N200   1.359       .  A
C199        N204   1.357       .  A
C199       C2116   1.438       .  S
N200        C201   1.360       .  A
C201        N202   1.358       .  A
C201       C2102   1.439       .  S
N202        C203   1.357       .  A
C203        N204   1.356       .  A
C203       C2130   1.437       .  S
C205        C206   1.533       .  S
C205        C211   1.533       .  S
C205        C209   1.535       .  S
C205       C2088   1.468       .  S
C206        H213   1.087       .  S
C206        C207   1.364       .  D
C207        C208   1.539       .  S
C207       C2118   1.443       .  S
C208        C212   1.539       .  S
C208        C210   1.538       .  S
C208        H214   1.112       .  S
C209        H215   1.087       .  S
C209        C210   1.365       .  D
C210       C2146   1.443       .  S
C211        H216   1.087       .  S
C211        C212   1.364       .  D
C212       C2074   1.443       .  S
C217        N218   1.358       .  A
C217        N222   1.361       .  A
C217       C2034   1.441       .  S
N218        C219   1.356       .  A
C219        N220   1.356       .  A
C219       C2060   1.437       .  S
N220        C221   1.358       .  A
C221        N222   1.361       .  A
C221       C2046   1.441       .  S
C223        N224   1.356       .  A
C223        N228   1.357       .  A
C223       C2004   1.437       .  S
N224        C225   1.358       .  A
C225        N226   1.361       .  A
C225       C2018   1.440       .  S
N226        C227   1.361       .  A
C227        N228   1.358       .  A
C227       C1990   1.441       .  S
C229        C230   1.534       .  S
C229        C235   1.534       .  S
C229        C233   1.533       .  S
C229       C2020   1.472   1_455  S
C230        H237   1.087   1_455  S
C230        C231   1.364       .  D
C231        C232   1.540       .  S
C231       C2704   1.445       .  S
C232        C236   1.541       .  S
C232        C234   1.540       .  S
C232        H238   1.111       .  S
C233        H239   1.087       .  S
C233        C234   1.364       .  D
C234       C2104   1.445       .  S
C235        H240   1.087       .  S
C235        C236   1.365       .  D
C236       C2048   1.447       .  S
C241        C242   1.534       .  S
C241        C247   1.533       .  S
C241        C245   1.534       .  S
C241       C1948   1.471       .  S
C242        H249   1.087       .  S
C242        C243   1.365       .  D
C243        C244   1.540       .  S
C243       C1964   1.446       .  S
C244        C248   1.541       .  S
C244        C246   1.538       .  S
C244        H250   1.111       .  S
C245        H251   1.087       .  S
C245        C246   1.365       .  D
C246       C1976   1.443       .  S
C247        H252   1.087       .  S
C247        C248   1.364       .  D
C248       C1992   1.446       .  S
C253        N254   1.356       .  A
C253        N258   1.356       .  A
C253       C1934   1.437       .  S
N254        C255   1.357       .  A
C255        N256   1.361       .  A
C255       C1962   1.440       .  S
N256        C257   1.361       .  A
C257        N258   1.358       .  A
C257       C2202   1.440       .  S
C259        N260   1.358       .  A
C259        N264   1.359       .  A
C259       C1978   1.438       .  S
N260        C261   1.357       .  A
C261        N262   1.356       .  A
C261       C1920   1.437       .  S
N262        C263   1.357       .  A
C263        N264   1.359       .  A
C263       C1906   1.438       .  S
C265        N266   1.358       .  A
C265        N270   1.360       .  A
C265       C1950   1.439       .  S
N266        C267   1.357       .  A
C267        N268   1.356       .  A
C267       C1878   1.436       .  S
N268        C269   1.357       .  A
C269        N270   1.360       .  A
C269       C1892   1.438       .  S
C271        N272   1.358       .  A
C271        N276   1.360       .  A
C271       C1852   1.439       .  S
N272        C273   1.357       .  A
C273        N274   1.356       .  A
C273       C1866   1.435       .  S
N274        C275   1.356       .  A
C275        N276   1.360       .  A
C275       C1838   1.437       .  S
C277        C278   1.534       .  S
C277        C283   1.534       .  S
C277        C281   1.534       .  S
C277       C1810   1.470       .  S
C278        H285   1.087       .  S
C278        C279   1.364       .  D
C279        C280   1.537       .  S
C279       C1894   1.442       .  S
C280        C284   1.538       .  S
C280        C282   1.538       .  S
C280        H286   1.112       .  S
C281        H287   1.087       .  S
C281        C282   1.365       .  D
C282       C1836   1.443       .  S
C283        H288   1.087       .  S
C283        C284   1.364       .  D
C284       C1822   1.443       .  S
C289        N290   1.358       .  A
C289        N294   1.360       .  A
C289       C1766   1.438       .  S
N290        C291   1.356       .  A
C291        N292   1.356       .  A
C291       C1796   1.437       .  S
N292        C293   1.357       .  A
C293        N294   1.360       .  A
C293       C1780   1.438       .  S
C295        C296   1.533       .  S
C295        C301   1.533       .  S
C295        C299   1.533       .  S
C295       C2636   1.469       .  S
C296        H303   1.087       .  S
C296        C297   1.364       .  D
C297        C298   1.541       .  S
C297       C1752   1.444       .  S
C298        C302   1.540       .  S
C298        C300   1.539       .  S
C298        H304   1.111       .  S
C299        H305   1.087       .  S
C299        C300   1.364       .  D
C300       C1782   1.443       .  S
C301        H306   1.087       .  S
C301        C302   1.364       .  D
C302       C2230   1.444       .  S
C307        N308   1.357       .  A
C307        N312   1.356       .  A
C307       C1738   1.437       .  S
N308        C309   1.358       .  A
C309        N310   1.360       .  A
C309       C2482   1.439       .  S
N310        C311   1.360       .  A
C311        N312   1.357       .  A
C311       C1754   1.438       .  S
C313        N314   1.360   1_565  A
C313        N318   1.356       .  A
C313       C2090   1.435       .  S
N314        C315   1.360       .  A
C315        N316   1.356   1_545  A
C315       C1710   1.436       .  S
N316        C317   1.355       .  A
C317        N318   1.354       .  A
C317       C1726   1.431       .  S
C319        C320   1.532       .  S
C319        C325   1.534       .  S
C319        C323   1.533       .  S
C319       C1682   1.469       .  S
C320        H327   1.087       .  S
C320        C321   1.364       .  D
C321        C322   1.540       .  S
C321       C1696   1.443       .  S
C322        C326   1.539       .  S
C322        C324   1.539       .  S
C322        H328   1.112       .  S
C323        H329   1.087       .  S
C323        C324   1.364       .  D
C324       C1712   1.442       .  S
C325        H330   1.087       .  S
C325        C326   1.364       .  D
C326       C1768   1.443       .  S
C331        N332   1.357       .  A
C331        N336   1.358       .  A
C331       C1684   1.437       .  S
N332        C333   1.356       .  A
C333        N334   1.357       .  A
C333       C1670   1.436       .  S
N334        C335   1.358       .  A
C335        N336   1.359       .  A
C335       C1654   1.438       .  S
N337        C341   1.346       .  A
N337        N338   1.323       .  A
N337       Cu345   2.073       .  S
N338        C339   1.344       .  A
N338       Cu344   2.072       .  S
C339        C340   1.378       .  A
C339        H342   1.082       .  S
C340       C1640   1.435       .  S
C340        C341   1.379       .  A
C341        H343   1.082       .  S
Cu344       N347   2.072       .  S
Cu345       N355   2.073       .  S
Cu346       N348   2.071       .  S
Cu346       N354   2.071       .  S
N347        C351   1.346       .  A
N347        N348   1.323       .  A
N348        C349   1.345       .  A
C349        C350   1.379       .  A
C349        H352   1.082       .  S
C350       C1668   1.436       .  S
C350        C351   1.380       .  A
C351        H353   1.082       .  S
N354        C358   1.345       .  A
N354        N355   1.323       .  A
N355        C356   1.345       .  A
C356        C357   1.379       .  A
C356        H359   1.082       .  S
C357       C2690   1.435       .  S
C357        C358   1.378       .  A
C358        H360   1.082       .  S
N361        C365   1.345       .  A
N361        N362   1.323       .  A
N361       Cu369   2.071       .  S
N362        C363   1.345       .  A
N362       Cu368   2.074       .  S
C363        C364   1.379       .  A
C363        H366   1.082       .  S
C364       C1864   1.436       .  S
C364        C365   1.379       .  A
C365        H367   1.082       .  S
Cu368       N371   2.074       .  S
Cu369       N379   2.071       .  S
Cu370       N372   2.065       .  S
Cu370       N378   2.064       .  S
N371        C375   1.345       .  A
N371        N372   1.322       .  A
N372        C373   1.345       .  A
C373        C374   1.378       .  A
C373        H376   1.082       .  S
C374       C2186   1.435       .  S
C374        C375   1.380       .  A
C375        H377   1.082       .  S
N378        C382   1.343       .  A
N378        N379   1.323       .  A
N379        C380   1.345       .  A
C380        C381   1.379       .  A
C380        H383   1.082       .  S
C381       C1724   1.432       .  S
C381        C382   1.377       .  A
C382        H384   1.082       .  S
C385        N386   1.360       .  A
C385        N390   1.357       .  A
C385       C1598   1.439       .  S
N386        C387   1.360       .  A
C387        N388   1.358       .  A
C387       C1612   1.440       .  S
N388        C389   1.357       .  A
C389        N390   1.356       .  A
C389       C1628   1.437       .  S
C391        C392   1.533       .  S
C391        C397   1.533       .  S
C391        C395   1.532       .  S
C391       C1584   1.469       .  S
C392        H399   1.087       .  S
C392        C393   1.364       .  D
C393        C394   1.541       .  S
C393       C1850   1.445       .  S
C394        C398   1.541       .  S
C394        C396   1.542       .  S
C394        H400   1.111       .  S
C395        H401   1.087       .  S
C395        C396   1.364       .  D
C396       C2032   1.446       .  S
C397        H402   1.087       .  S
C397        C398   1.365       .  D
C398       C1614   1.445       .  S
C403        N404   1.357       .  A
C403        N408   1.359       .  A
C403       C2566   1.436       .  S
N404        C405   1.355       .  A
C405        N406   1.355       .  A
C405       C1642   1.434       .  S
N406        C407   1.357       .  A
C407        N408   1.359       .  A
C407       C1586   1.436       .  S
C409        N410   1.357       .  A
C409        N414   1.358       .  A
C409       C2874   1.436       .  S
N410        C411   1.356       .  A
C411        N412   1.357       .  A
C411       C1570   1.437       .  S
N412        C413   1.358       .  A
C413        N414   1.359       .  A
C413       C1558   1.437       .  S
C415        C416   1.534       .  S
C415        C421   1.533       .  S
C415        C419   1.534       .  S
C415       C1556   1.469       .  S
C416        H423   1.087       .  S
C416        C417   1.365       .  D
C417        C418   1.539       .  S
C417       C1600   1.444       .  S
C418        C422   1.537       .  S
C418        C420   1.538       .  S
C418        H424   1.112       .  S
C419        H425   1.087       .  S
C419        C420   1.364       .  D
C420       C1530   1.442       .  S
C421        H426   1.087       .  S
C421        C422   1.363       .  D
C422       C1544   1.441       .  S
C427        N428   1.357       .  A
C427        N432   1.359       .  A
C427       C1528   1.437       .  S
N428        C429   1.356       .  A
C429        N430   1.356       .  A
C429       C1514   1.435       .  S
N430        C431   1.357       .  A
C431        N432   1.359       .  A
C431       C1500   1.437       .  S
N433        C437   1.346       .  A
N433        N434   1.323       .  A
N433       Cu441   2.074       .  S
N434        C435   1.345       .  A
N434       Cu440   2.071       .  S
C435        C436   1.379       .  A
C435        H438   1.082       .  S
C436       C1486   1.437       .  S
C436        C437   1.380       .  A
C437        H439   1.082       .  S
Cu440       N443   2.071       .  S
Cu441       N451   2.075       .  S
Cu442       N444   2.075       .  S
Cu442       N450   2.075       .  S
N443        C447   1.345       .  A
N443        N444   1.323       .  A
N444        C445   1.346       .  A
C445        C446   1.380       .  A
C445        H448   1.082       .  S
C446       C1516   1.436       .  S
C446        C447   1.378       .  A
C447        H449   1.082       .  S
N450        C454   1.346       .  A
N450        N451   1.323       .  A
N451        C452   1.345       .  A
C452        C453   1.379       .  A
C452        H455   1.082       .  S
C453       C2286   1.437       .  S
C453        C454   1.380       .  A
C454        H456   1.082       .  S
N457        C461   1.346       .  A
N457        N458   1.323       .  A
N457       Cu465   2.077       .  S
N458        C459   1.345       .  A
N458       Cu464   2.074       .  S
C459        C460   1.379       .  A
C459        H462   1.082       .  S
C460       C2524   1.438       .  S
C460        C461   1.380       .  A
C461        H463   1.082       .  S
Cu464       N467   2.074       .  S
Cu465       N475   2.077       .  S
Cu466       N468   2.075       .  S
Cu466       N474   2.075       .  S
N467        C471   1.346       .  A
N467        N468   1.323       .  A
N468        C469   1.346       .  A
C469        C470   1.380       .  A
C469        H472   1.082       .  S
C470       C2006   1.438       .  S
C470        C471   1.380       .  A
C471        H473   1.082       .  S
N474        C478   1.345       .  A
N474        N475   1.323       .  A
N475        C476   1.346       .  A
C476        C477   1.380       .  A
C476        H479   1.082       .  S
C477       C1572   1.438       .  S
C477        C478   1.379       .  A
C478        H480   1.082       .  S
C481        N482   1.359       .  A
C481        N486   1.361       .  A
C481       C1446   1.442       .  S
N482        C483   1.358       .  A
C483        N484   1.356       .  A
C483       C1472   1.439       .  S
N484        C485   1.357       .  A
C485        N486   1.361       .  A
C485       C1458   1.441       .  S
C487        C488   1.535       .  S
C487        C493   1.532       .  S
C487        C491   1.534       .  S
C487       C2832   1.471       .  S
C488        H495   1.087       .  S
C488        C489   1.366       .  D
C489        C490   1.541       .  S
C489       C1460   1.446       .  S
C490        C494   1.540       .  S
C490        C492   1.539       .  S
C490        H496   1.111       .  S
C491        H497   1.087       .  S
C491        C492   1.364       .  D
C492       C1430   1.444       .  S
C493        H498   1.087       .  S
C493        C494   1.363       .  D
C494       C2496   1.444       .  S
C499        N500   1.358       .  A
C499        N504   1.360       .  A
C499       C1432   1.439       .  S
N500        C501   1.357       .  A
C501        N502   1.356       .  A
C501       C1488   1.437       .  S
N502        C503   1.357       .  A
C503        N504   1.359       .  A
C503       C1808   1.438       .  S
C505        N506   1.357       .  A
C505        N510   1.361       .  A
C505       C1402   1.439       .  S
N506        C507   1.356       .  A
C507        N508   1.356       .  A
C507       C1416   1.435       .  S
N508        C509   1.357       .  A
C509        N510   1.360       .  A
C509       C1390   1.439       .  S
C511        N512   1.357       .  A
C511        N516   1.361       .  A
C511       C2370   1.440       .  S
N512        C513   1.356       .  A
C513        N514   1.356       .  A
C513       C1374   1.435       .  S
N514        C515   1.357       .  A
C515        N516   1.361       .  A
C515       C1362   1.440       .  S
C517        C518   1.532       .  S
C517        C523   1.533       .  S
C517        C521   1.536       .  S
C517       C1346   1.472       .  S
C518        H525   1.087       .  S
C518        C519   1.364       .  D
C519        C520   1.541       .  S
C519       C1388   1.445       .  S
C520        C524   1.541       .  S
C520        C522   1.541       .  S
C520        H526   1.111       .  S
C521        H527   1.087       .  S
C521        C522   1.366       .  D
C522       C1444   1.447       .  S
C523        H528   1.087       .  S
C523        C524   1.364       .  D
C524       C1360   1.446       .  S
N529        C533   1.345       .  A
N529        N530   1.323       .  A
N529       Cu537   2.072       .  S
N530        C531   1.345       .  A
N530       Cu536   2.072       .  S
C531        C532   1.379       .  A
C531        H534   1.082       .  S
C532       C1376   1.436       .  S
C532        C533   1.379       .  A
C533        H535   1.082       .  S
Cu536       N539   2.071       .  S
Cu537       N547   2.072       .  S
Cu538       N540   2.072       .  S
Cu538       N546   2.072       .  S
N539        C543   1.345       .  A
N539        N540   1.323       .  A
N540        C541   1.345       .  A
C541        C542   1.379       .  A
C541        H544   1.082       .  S
C542       C2804   1.435       .  S
C542        C543   1.378       .  A
C543        H545   1.082       .  S
N546        C550   1.345       .  A
N546        N547   1.323       .  A
N547        C548   1.345       .  A
C548        C549   1.379       .  A
C548        H551   1.082       .  S
C549       C2664   1.435       .  S
C549        C550   1.379       .  A
C550        H552   1.082       .  S
N553        C557   1.346       .  A
N553        N554   1.323       .  A
N553       Cu561   2.076       .  S
N554        C555   1.346       .  A
N554       Cu560   2.074       .  S
C555        C556   1.380       .  A
C555        H558   1.082       .  S
C556       C1740   1.438       .  S
C556        C557   1.380       .  A
C557        H559   1.082       .  S
Cu560       N563   2.074       .  S
Cu561       N571   2.076       .  S
Cu562       N564   2.075       .  S
Cu562       N570   2.075       .  S
N563        C567   1.346       .  A
N563        N564   1.323       .  A
N564        C565   1.345       .  A
C565        C566   1.379       .  A
C565        H568   1.082       .  S
C566       C1418   1.437       .  S
C566        C567   1.379       .  A
C567        H569   1.082       .  S
N570        C574   1.346       .  A
N570        N571   1.323       .  A
N571        C572   1.346       .  A
C572        C573   1.380       .  A
C572        H575   1.082       .  S
C573       C1922   1.438       .  S
C573        C574   1.380       .  A
C574        H576   1.082       .  S
C577        N578   1.358       .  A
C577        N582   1.359       .  A
C577       C2468   1.439       .  S
N578        C579   1.357       .  A
C579        N580   1.357       .  A
C579       C1320   1.438       .  S
N580        C581   1.358       .  A
C581        N582   1.359       .  A
C581       C1332   1.439       .  S
N583        C587   1.346       .  A
N583        N584   1.323       .  A
N583       Cu591   2.075       .  S
N584        C585   1.346       .  A
N584       Cu590   2.074       .  S
C585        C586   1.380       .  A
C585        H588   1.082       .  S
C586       C1318   1.439       .  S
C586        C587   1.380       .  A
C587        H589   1.082       .  S
Cu590       N593   2.074       .  S
Cu591       N601   2.075       .  S
Cu592       N594   2.079       .  S
Cu592       N600   2.079       .  S
N593        C597   1.345       .  A
N593        N594   1.324       .  A
N594        C595   1.347       .  A
C595        C596   1.381       .  A
C595        H598   1.082       .  S
C596       C1936   1.438       .  S
C596        C597   1.379       .  A
C597        H599   1.082       .  S
N600        C604   1.347       .  A
N600        N601   1.324       .  A
N601        C602   1.345       .  A
C602        C603   1.379       .  A
C602        H605   1.082       .  S
C603       C2172   1.438       .  S
C603        C604   1.381       .  A
C604        H606   1.082       .  S
N607        C611   1.346       .  A
N607        N608   1.323       .  A
N607       Cu615   2.077       .  S
N608        C609   1.346       .  A
N608       Cu614   2.076       .  S
C609        C610   1.380       .  A
C609        H612   1.082       .  S
C610       C1290   1.439       .  S
C610        C611   1.380       .  A
C611        H613   1.082       .  S
Cu614       N617   2.076       .  S
Cu615       N625   2.076       .  S
Cu616       N618   2.072       .  S
Cu616       N624   2.072       .  S
N617        C621   1.346       .  A
N617        N618   1.323       .  A
N618        C619   1.345       .  A
C619        C620   1.379       .  A
C619        H622   1.082       .  S
C620       C1304   1.437       .  S
C620        C621   1.380       .  A
C621        H623   1.082       .  S
N624        C628   1.345       .  A
N624        N625   1.323       .  A
N625        C626   1.346       .  A
C626        C627   1.380       .  A
C626        H629   1.082       .  S
C627       C2860   1.437       .  S
C627        C628   1.379       .  A
C628        H630   1.082       .  S
C631        N632   1.358       .  A
C631        N636   1.359       .  A
C631       C1278   1.437       .  S
N632        C633   1.357       .  A
C633        N634   1.356       .  A
C633       C1306   1.436       .  S
N634        C635   1.357       .  A
C635        N636   1.359       .  A
C635       C1542   1.436       .  S
C637        C638   1.535       .  S
C637        C643   1.533       .  S
C637        C641   1.533       .  S
C637       C1262   1.470       .  S
C638        H645   1.087       .  S
C638        C639   1.365       .  D
C639        C640   1.539       .  S
C639       C1656   1.444       .  S
C640        C644   1.539       .  S
C640        C642   1.539       .  S
C640        H646   1.112       .  S
C641        H647   1.087   1_455  S
C641        C642   1.364       .  D
C642       C1334   1.444   1_455  S
C643        H648   1.087       .  S
C643        C644   1.364       .  D
C644       C1276   1.443       .  S
C649        N650   1.359       .  A
C649        N654   1.357       .  A
C649       C2578   1.436       .  S
N650        C651   1.359       .  A
C651        N652   1.357       .  A
C651       C1248   1.436       .  S
N652        C653   1.356       .  A
C653        N654   1.356       .  A
C653       C1234   1.436       .  S
N655        C659   1.346       .  A
N655        N656   1.323       .  A
N655       Cu663   2.074       .  S
N656        C657   1.346       .  A
N656       Cu662   2.076       .  S
C657        C658   1.380       .  A
C657        H660   1.082       .  S
C658       C2720   1.438       .  S
C658        C659   1.380       .  A
C659        H661   1.082       .  S
Cu662       N665   2.076       .  S
Cu663       N673   2.074       .  S
Cu664       N666   2.074       .  S
Cu664       N672   2.074       .  S
N665        C669   1.346       .  A
N665        N666   1.323       .  A
N666        C667   1.345       .  A
C667        C668   1.379       .  A
C667        H670   1.082       .  S
C668       C1236   1.437       .  S
C668        C669   1.380       .  A
C669        H671   1.082       .  S
N672        C676   1.346       .  A
N672        N673   1.323       .  A
N673        C674   1.345       .  A
C674        C675   1.379       .  A
C674        H677   1.082       .  S
C675       C2970   1.437       .  S
C675        C676   1.380       .  A
C676        H678   1.082       .  S
N679        C683   1.347       .  A
N679        N680   1.323       .  A
N679       Cu687   2.078       .  S
N680        C681   1.344       .  A
N680       Cu686   2.069       .  S
C681        C682   1.378       .  A
C681        H684   1.082       .  S
C682       C1208   1.437       .  S
C682        C683   1.381       .  A
C683        H685   1.082       .  S
Cu686       N689   2.069       .  S
Cu687       N697   2.078       .  S
Cu688       N690   2.078       .  S
Cu688       N696   2.078       .  S
N689        C693   1.345       .  A
N689        N690   1.323       .  A
N690        C691   1.346       .  A
C691        C692   1.381       .  A
C691        H694   1.082       .  S
C692       C1220   1.438       .  S
C692        C693   1.379       .  A
C693        H695   1.082       .  S
N696        C700   1.346       .  A
N696        N697   1.324       .  A
N697        C698   1.346       .  A
C698        C699   1.380       .  A
C698        H701   1.082       .  S
C699       C2258   1.439       .  S
C699        C700   1.380       .  A
C700        H702   1.082       .  S
C703        N704   1.360       .  A
C703        N708   1.358       .  A
C703       C1194   1.439       .  S
N704        C705   1.360       .  A
C705        N706   1.358       .  A
C705       C1348   1.439       .  S
N706        C707   1.357       .  A
C707        N708   1.357       .  A
C707       C1222   1.437   1_554  S
C709        C710   1.534       .  S
C709        C715   1.534       .  S
C709        C713   1.533   1_554  S
C709       C1178   1.470       .  S
C710        H717   1.087       .  S
C710        C711   1.365       .  D
C711        C712   1.539       .  S
C711       C1502   1.443       .  S
C712        C716   1.539       .  S
C712        C714   1.538   1_554  S
C712        H718   1.112       .  S
C713        H719   1.087       .  S
C713        C714   1.363       .  D
C714       C1250   1.442       .  S
C715        H720   1.087       .  S
C715        C716   1.364       .  D
C716       C1192   1.444       .  S
C721        C722   1.533   1_554  S
C721        C727   1.533       .  S
C721        C725   1.533       .  S
C721       C2270   1.470   1_554  S
C722        H729   1.087       .  S
C722        C723   1.364       .  D
C723        C724   1.540   1_556  S
C723       C1166   1.443       .  S
C724        C728   1.540       .  S
C724        C726   1.542       .  S
C724        H730   1.111       .  S
C725        H731   1.087       .  S
C725        C726   1.364       .  D
C726       C1150   1.445       .  S
C727        H732   1.087       .  S
C727        C728   1.364       .  D
C728       C2956   1.445       .  S
C733        N734   1.360       .  A
C733        N738   1.358       .  A
C733       C2076   1.438       .  S
N734        C735   1.360       .  A
C735        N736   1.357       .  A
C735       C1164   1.438       .  S
N736        C737   1.356       .  A
C737        N738   1.356       .  A
C737       C1206   1.436       .  S
C739        N740   1.356       .  A
C739        N744   1.355       .  A
C739       C1122   1.435       .  S
N740        C741   1.358       .  A
C741        N742   1.361       .  A
C741       C1152   1.440       .  S
N742        C743   1.361       .  A
C743        N744   1.356       .  A
C743       C1138   1.438       .  S
C745        C746   1.533   1_455  S
C745        C751   1.534       .  S
C745        C749   1.534       .  S
C745       C2678   1.469       .  S
C746        H753   1.087       .  S
C746        C747   1.364   1_655  D
C747        C748   1.539       .  S
C747       C1108   1.444   1_455  S
C748        C752   1.539       .  S
C748        C750   1.538       .  S
C748        H754   1.112       .  S
C749        H755   1.087       .  S
C749        C750   1.364       .  D
C750       C1096   1.443       .  S
C751        H756   1.087       .  S
C751        C752   1.365       .  D
C752       C2158   1.444       .  S
C757        N758   1.356       .  A
C757        N762   1.357       .  A
C757       C1292   1.437   1_556  S
N758        C759   1.357       .  A
C759        N760   1.360       .  A
C759       C2354   1.439       .  S
N760        C761   1.360       .  A
C761        N762   1.358       .  A
C761       C1110   1.440       .  S
C763        N764   1.357       .  A
C763        N768   1.359       .  A
C763       C1180   1.438       .  S
N764        C765   1.356       .  A
C765        N766   1.356       .  A
C765       C1080   1.435       .  S
N766        C767   1.357       .  A
C767        N768   1.360       .  A
C767       C1094   1.437       .  S
C769        C770   1.534       .  S
C769        C775   1.533       .  S
C769        C773   1.534       .  S
C769       C1908   1.470       .  S
C770        H777   1.087       .  S
C770        C771   1.365       .  D
C771        C772   1.540       .  S
C771       C1068   1.446       .  S
C772        C776   1.540       .  S
C772        C774   1.538       .  S
C772        H778   1.112       .  S
C773        H779   1.087       .  S
C773        C774   1.364       .  D
C774       C1052   1.442       .  S
C775        H780   1.087       .  S
C775        C776   1.364       .  D
C776       C2440   1.444       .  S
C781        N782   1.357       .  A
C781        N786   1.359   1_455  A
C781       C2888   1.440       .  S
N782        C783   1.357       .  A
C783        N784   1.358       .  A
C783       C1040   1.440       .  S
N784        C785   1.359   1_455  A
C785        N786   1.360       .  A
C785       C1066   1.441       .  S
C787        N788   1.357       .  A
C787        N792   1.360       .  A
C787       C1054   1.436       .  S
N788        C789   1.356   1_655  A
C789        N790   1.356       .  A
C789       C1024   1.434       .  S
N790        C791   1.357   1_455  A
C791        N792   1.359       .  A
C791       C1264   1.437       .  S
N793        C797   1.345       .  A
N793        N794   1.323       .  A
N793       Cu801   2.071       .  S
N794        C795   1.345       .  A
N794       Cu800   2.070       .  S
C795        C796   1.379       .  A
C795        H798   1.082       .  S
C796       C1082   1.436       .  S
C796        C797   1.379       .  A
C797        H799   1.082       .  S
Cu800       N803   2.070       .  S
Cu801       N811   2.071       .  S
Cu802       N804   2.074       .  S
Cu802       N810   2.074       .  S
N803        C807   1.345       .  A
N803        N804   1.323       .  A
N804        C805   1.345       .  A
C805        C806   1.379       .  A
C805        H808   1.082       .  S
C806       C1026   1.435       .  S
C806        C807   1.378       .  A
C807        H809   1.082       .  S
N810        C814   1.346       .  A
N810        N811   1.323       .  A
N811        C812   1.345       .  A
C812        C813   1.378       .  A
C812        H815   1.082       .  S
C813       C1124   1.436       .  S
C813        C814   1.380       .  A
C814        H816   1.082       .  S
C817        N818   1.359       .  A
C817        N822   1.357       .  A
C817       C1010   1.436       .  S
N818        C819   1.359       .  A
C819        N820   1.358       .  A
C819       C1824   1.437       .  S
N820        C821   1.356       .  A
C821        N822   1.355       .  A
C821        C996   1.435       .  S
N823        C827   1.347       .  A
N823        N824   1.323       .  A
N823       Cu831   2.077       .  S
N824        C825   1.345       .  A
N824       Cu830   2.073       .  S
C825        C826   1.379       .  A
C825        H828   1.082       .  S
C826        C998   1.437       .  S
C826        C827   1.380       .  A
C827        H829   1.082       .  S
Cu830       N833   2.074       .  S
Cu831       N841   2.077       .  S
Cu832       N834   2.078       .  S
Cu832       N840   2.078       .  S
N833        C837   1.346       .  A
N833        N834   1.323       .  A
N834        C835   1.346       .  A
C835        C836   1.380       .  A
C835        H838   1.082       .  S
C836       C2300   1.439       .  S
C836        C837   1.380       .  A
C837        H839   1.082       .  S
N840        C844   1.347       .  A
N840        N841   1.324       .  A
N841        C842   1.346       .  A
C842        C843   1.380       .  A
C842        H845   1.082       .  S
C843       C2454   1.439       .  S
C843        C844   1.380       .  A
C844        H846   1.082       .  S
N847        C851   1.345       .  A
N847        N848   1.323       .  A
N847       Cu855   2.072       .  S
N848        C849   1.346       .  A
N848       Cu854   2.078       .  S
C849        C850   1.380       .  A
C849        H852   1.082       .  S
C850        C982   1.438       .  S
C850        C851   1.379       .  A
C851        H853   1.082       .  S
Cu854       N857   2.078       .  S
Cu855       N865   2.072       .  S
Cu856       N858   2.082       .  S
Cu856       N864   2.081       .  S
N857        C861   1.347       .  A
N857        N858   1.324       .  A
N858        C859   1.347       .  A
C859        C860   1.381       .  A
C859        H862   1.082       .  S
C860       C1038   1.441       .  S
C860        C861   1.381       .  A
C861        H863   1.082       .  S
N864        C868   1.347       .  A
N864        N865   1.323       .  A
N865        C866   1.345       .  A
C866        C867   1.379       .  A
C866        H869   1.082       .  S
C867       C2062   1.439       .  S
C867        C868   1.381       .  A
C868        H870   1.082       .  S
C871        N872   1.357       .  A
C871        N876   1.359   1_565  A
C871        C970   1.437       .  S
N872        C873   1.356       .  A
C873        N874   1.357       .  A
C873        C984   1.436       .  S
N874        C875   1.358   1_565  A
C875        N876   1.359       .  A
C875       C1698   1.438       .  S
C877        C878   1.532       .  S
C877        C883   1.533       .  S
C877        C881   1.533       .  S
C877       C1012   1.468       .  S
C878        H885   1.087       .  S
C878        C879   1.363       .  D
C879        C880   1.539       .  S
C879        C968   1.442       .  S
C880        C884   1.539       .  S
C880        C882   1.540       .  S
C880        H886   1.111       .  S
C881        H887   1.087       .  S
C881        C882   1.364       .  D
C882       C1136   1.444       .  S
C883        H888   1.087       .  S
C883        C884   1.364       .  D
C884       C1404   1.443       .  S
N889        C893   1.346       .  A
N889        N890   1.324       .  A
N889       Cu897   2.077       .  S
N890        C891   1.347       .  A
N890       Cu896   2.080       .  S
C891        C892   1.381       .  A
C891        H894   1.082       .  S
C892       C1626   1.439       .  S
C892        C893   1.379       .  A
C893        H895   1.082       .  S
Cu896       N899   2.080       .  S
Cu897       N907   2.076       .  S
Cu898       N900   2.074       .  S
Cu898       N906   2.074       .  S
N899        C903   1.347       .  A
N899        N900   1.323       .  A
N900        C901   1.345       .  A
C901        C902   1.379       .  A
C901        H904   1.082       .  S
C902       C1474   1.440       .  S
C902        C903   1.381       .  A
C903        H905   1.082       .  S
N906        C910   1.345       .  A
N906        N907   1.323       .  A
N907        C908   1.346       .  A
C908        C909   1.381       .  A
C908        H911   1.082       .  S
C909       C1794   1.439       .  S
C909        C910   1.380       .  A
C910        H912   1.082       .  S
N913        C917   1.345       .  A
N913        N914   1.323       .  A
N913       Cu921   2.074       .  S
N914        C915   1.346       .  A
N914       Cu920   2.076       .  S
C915        C916   1.380       .  A
C915        H918   1.082       .  S
C916       C2608   1.438       .  S
C916        C917   1.379       .  A
C917        H919   1.082       .  S
Cu920       N923   2.075       .  S
Cu921       N931   2.074       .  S
Cu922       N924   2.073       .  S
Cu922       N930   2.072       .  S
N923        C927   1.346       .  A
N923        N924   1.324       .  A
N924        C925   1.345       .  A
C925        C926   1.379       .  A
C925        H928   1.082       .  S
C926       C2538   1.436       .  S
C926        C927   1.379       .  A
C927        H929   1.082       .  S
N930        C934   1.346       .  A
N930        N931   1.323       .  A
N931        C932   1.345       .  A
C932        C933   1.379       .  A
C932        H935   1.082       .  S
C933       C1880   1.437       .  S
C933        C934   1.380       .  A
C934        H936   1.082       .  S
N937        C941   1.346       .  A
N937        N938   1.324       .  A
N937       Cu945   2.077       .  S
N938        C939   1.347       .  A
N938       Cu944   2.080       .  S
C939        C940   1.381       .  A
C939        H942   1.082       .  S
C940       C2930   1.439       .  S
C940        C941   1.380       .  A
C941        H943   1.082       .  S
Cu944       N947   2.080       .  S
Cu945       N955   2.077       .  S
Cu946       N948   2.073       .  S
Cu946       N954   2.073       .  S
N947        C951   1.347       .  A
N947        N948   1.323       .  A
N948        C949   1.346       .  A
C949        C950   1.379       .  A
C949        H952   1.082       .  S
C950       C2132   1.439       .  S
C950        C951   1.381       .  A
C951        H953   1.082       .  S
N954        C958   1.345       .  A
N954        N955   1.323       .  A
N955        C956   1.347       .  A
C956        C957   1.381       .  A
C956        H959   1.082       .  S
C957       C2412   1.438       .  S
C957        C958   1.379       .  A
C958        H960   1.082       .  S
C961        C969   1.441       .  S
C961        C962   1.401       .  A
C961        C966   1.402       .  A
C962        C963   1.400       .  A
C962        H971   1.083       .  S
C963        C964   1.402       .  A
C963        H972   1.083       .  S
C964        C967   1.440       .  S
C964        C965   1.401       .  A
C965        C966   1.399       .  A
C965        H973   1.083       .  S
C966        H974   1.083       .  S
C967        C968   1.206       .  T
C969        C970   1.207       .  T
C975        C983   1.441       .  S
C975        C976   1.401       .  A
C975        C980   1.402       .  A
C976        C977   1.399       .  A
C976        H985   1.083       .  S
C977        C978   1.402       .  A
C977        H986   1.083       .  S
C978        C981   1.441       .  S
C978        C979   1.401       .  A
C979        C980   1.399       .  A
C979        H987   1.083       .  S
C980        H988   1.083       .  S
C981        C982   1.206       .  T
C983        C984   1.206       .  T
C989        C997   1.440       .  S
C989        C990   1.401       .  A
C989        C994   1.401       .  A
C990        C991   1.399       .  A
C990        H999   1.083       .  S
C991        C992   1.401       .  A
C991       H1000   1.083       .  S
C992        C995   1.440       .  S
C992        C993   1.401       .  A
C993        C994   1.399       .  A
C993       H1001   1.083       .  S
C994       H1002   1.083       .  S
C995        C996   1.206       .  T
C997        C998   1.206       .  T
C1003      C1011   1.440       .  S
C1003      C1004   1.401       .  A
C1003      C1008   1.401       .  A
C1004      C1005   1.399       .  A
C1004      H1013   1.083       .  S
C1005      C1006   1.401       .  A
C1005      H1014   1.083       .  S
C1006      C1009   1.440       .  S
C1006      C1007   1.401       .  A
C1007      C1008   1.399       .  A
C1007      H1015   1.083       .  S
C1008      H1016   1.083       .  S
C1009      C1010   1.206       .  T
C1011      C1012   1.206       .  T
C1017      C1025   1.438       .  S
C1017      C1018   1.401       .  A
C1017      C1022   1.401       .  A
C1018      C1019   1.399       .  A
C1018      H1027   1.083       .  S
C1019      C1020   1.401       .  A
C1019      H1028   1.083       .  S
C1020      C1023   1.438       .  S
C1020      C1021   1.401       .  A
C1021      C1022   1.398       .  A
C1021      H1029   1.083       .  S
C1022      H1030   1.083       .  S
C1023      C1024   1.205       .  T
C1025      C1026   1.205       .  T
C1031      C1039   1.444       .  S
C1031      C1032   1.402       .  A
C1031      C1036   1.402       .  A
C1032      C1033   1.401       .  A
C1032      H1041   1.083       .  S
C1033      C1034   1.402       .  A
C1033      H1042   1.083       .  S
C1034      C1037   1.444       .  S
C1034      C1035   1.402       .  A
C1035      C1036   1.400       .  A
C1035      H1043   1.083       .  S
C1036      H1044   1.083       .  S
C1037      C1038   1.209       .  T
C1039      C1040   1.208       .  T
C1045      C1053   1.441       .  S
C1045      C1046   1.401       .  A
C1045      C1050   1.402       .  A
C1046      C1047   1.399       .  A
C1046      H1055   1.083       .  S
C1047      C1048   1.401       .  A
C1047      H1056   1.083       .  S
C1048      C1051   1.440       .  S
C1048      C1049   1.402       .  A
C1049      C1050   1.400       .  A
C1049      H1057   1.083       .  S
C1050      H1058   1.083       .  S
C1051      C1052   1.206   1_545  T
C1053      C1054   1.206       .  T
C1059      C1067   1.445       .  S
C1059      C1060   1.402       .  A
C1059      C1064   1.402       .  A
C1060      C1061   1.402       .  A
C1060      H1069   1.083       .  S
C1061      C1062   1.403       .  A
C1061      H1070   1.083       .  S
C1062      C1065   1.445       .  S
C1062      C1063   1.402       .  A
C1063      C1064   1.401       .  A
C1063      H1071   1.083       .  S
C1064      H1072   1.083       .  S
C1065      C1066   1.209       .  T
C1067      C1068   1.209       .  T
C1073      C1081   1.439       .  S
C1073      C1074   1.401       .  A
C1073      C1078   1.401       .  A
C1074      C1075   1.399       .  A
C1074      H1083   1.083       .  S
C1075      C1076   1.401       .  A
C1075      H1084   1.083       .  S
C1076      C1079   1.439       .  S
C1076      C1077   1.401       .  A
C1077      C1078   1.398       .  A
C1077      H1085   1.083       .  S
C1078      H1086   1.083       .  S
C1079      C1080   1.205   1_554  T
C1081      C1082   1.205       .  T
C1087      C1095   1.441       .  S
C1087      C1088   1.402       .  A
C1087      C1092   1.401       .  A
C1088      C1089   1.400       .  A
C1088      H1097   1.083       .  S
C1089      C1090   1.401       .  A
C1089      H1098   1.083       .  S
C1090      C1093   1.442       .  S
C1090      C1091   1.402       .  A
C1091      C1092   1.400       .  A
C1091      H1099   1.083       .  S
C1092      H1100   1.083       .  S
C1093      C1094   1.207       .  T
C1095      C1096   1.207       .  T
C1101      C1109   1.444       .  S
C1101      C1102   1.403       .  A
C1101      C1106   1.401       .  A
C1102      C1103   1.402       .  A
C1102      H1111   1.083       .  S
C1103      C1104   1.402       .  A
C1103      H1112   1.083       .  S
C1104      C1107   1.443       .  S
C1104      C1105   1.401       .  A
C1105      C1106   1.399       .  A
C1105      H1113   1.084       .  S
C1106      H1114   1.083       .  S
C1107      C1108   1.208       .  T
C1109      C1110   1.208       .  T
C1115      C1123   1.439       .  S
C1115      C1116   1.401       .  A
C1115      C1120   1.401       .  A
C1116      C1117   1.399       .  A
C1116      H1125   1.083       .  S
C1117      C1118   1.401   1_545  A
C1117      H1126   1.083       .  S
C1118      C1121   1.439       .  S
C1118      C1119   1.401       .  A
C1119      C1120   1.399   1_565  A
C1119      H1127   1.083       .  S
C1120      H1128   1.083       .  S
C1121      C1122   1.206       .  T
C1123      C1124   1.205       .  T
C1129      C1137   1.443       .  S
C1129      C1130   1.401       .  A
C1129      C1134   1.402       .  A
C1130      C1131   1.401       .  A
C1130      H1139   1.083       .  S
C1131      C1132   1.402       .  A
C1131      H1140   1.083       .  S
C1132      C1135   1.442       .  S
C1132      C1133   1.401       .  A
C1133      C1134   1.400       .  A
C1133      H1141   1.083       .  S
C1134      H1142   1.083       .  S
C1135      C1136   1.207       .  T
C1137      C1138   1.208       .  T
C1143      C1151   1.444       .  S
C1143      C1144   1.401       .  A
C1143      C1148   1.403       .  A
C1144      C1145   1.401       .  A
C1144      H1153   1.083       .  S
C1145      C1146   1.403       .  A
C1145      H1154   1.083       .  S
C1146      C1149   1.444       .  S
C1146      C1147   1.401       .  A
C1147      C1148   1.401       .  A
C1147      H1155   1.083       .  S
C1148      H1156   1.083       .  S
C1149      C1150   1.208       .  T
C1151      C1152   1.208       .  T
C1157      C1165   1.442       .  S
C1157      C1158   1.402       .  A
C1157      C1162   1.401       .  A
C1158      C1159   1.402       .  A
C1158      H1167   1.083       .  S
C1159      C1160   1.402       .  A
C1159      H1168   1.083       .  S
C1160      C1163   1.442       .  S
C1160      C1161   1.401       .  A
C1161      C1162   1.398       .  A
C1161      H1169   1.084       .  S
C1162      H1170   1.084       .  S
C1163      C1164   1.207       .  T
C1165      C1166   1.207       .  T
C1171      C1179   1.442       .  S
C1171      C1172   1.402   1_556  A
C1171      C1176   1.402       .  A
C1172      C1173   1.400       .  A
C1172      H1181   1.083       .  S
C1173      C1174   1.401   1_554  A
C1173      H1182   1.083       .  S
C1174      C1177   1.442       .  S
C1174      C1175   1.402       .  A
C1175      C1176   1.400       .  A
C1175      H1183   1.083       .  S
C1176      H1184   1.083       .  S
C1177      C1178   1.207   1_556  T
C1179      C1180   1.207       .  T
C1185      C1193   1.443       .  S
C1185      C1186   1.402       .  A
C1185      C1190   1.402       .  A
C1186      C1187   1.401       .  A
C1186      H1195   1.083       .  S
C1187      C1188   1.402       .  A
C1187      H1196   1.083       .  S
C1188      C1191   1.443       .  S
C1188      C1189   1.401       .  A
C1189      C1190   1.399       .  A
C1189      H1197   1.083   1_554  S
C1190      H1198   1.083   1_554  S
C1191      C1192   1.207       .  T
C1193      C1194   1.208       .  T
C1199      C1207   1.440       .  S
C1199      C1200   1.401   1_545  A
C1199      C1204   1.401       .  A
C1200      C1201   1.400       .  A
C1200      H1209   1.083       .  S
C1201      C1202   1.402       .  A
C1201      H1210   1.083       .  S
C1202      C1205   1.440       .  S
C1202      C1203   1.401   1_565  A
C1203      C1204   1.399       .  A
C1203      H1211   1.083       .  S
C1204      H1212   1.083       .  S
C1205      C1206   1.206       .  T
C1207      C1208   1.206       .  T
C1213      C1221   1.442       .  S
C1213      C1214   1.402       .  A
C1213      C1218   1.401       .  A
C1214      C1215   1.400       .  A
C1214      H1223   1.083       .  S
C1215      C1216   1.402       .  A
C1215      H1224   1.083       .  S
C1216      C1219   1.441       .  S
C1216      C1217   1.401       .  A
C1217      C1218   1.399       .  A
C1217      H1225   1.083       .  S
C1218      H1226   1.083       .  S
C1219      C1220   1.207       .  T
C1221      C1222   1.207       .  T
C1227      C1235   1.440       .  S
C1227      C1228   1.401       .  A
C1227      C1232   1.401       .  A
C1228      C1229   1.399       .  A
C1228      H1237   1.083       .  S
C1229      C1230   1.401       .  A
C1229      H1238   1.083       .  S
C1230      C1233   1.440       .  S
C1230      C1231   1.401       .  A
C1231      C1232   1.399       .  A
C1231      H1239   1.083       .  S
C1232      H1240   1.083       .  S
C1233      C1234   1.206       .  T
C1235      C1236   1.206       .  T
C1241      C1249   1.441       .  S
C1241      C1242   1.402       .  A
C1241      C1246   1.401       .  A
C1242      C1243   1.401       .  A
C1242      H1251   1.083       .  S
C1243      C1244   1.402       .  A
C1243      H1252   1.083       .  S
C1244      C1247   1.441       .  S
C1244      C1245   1.401       .  A
C1245      C1246   1.398       .  A
C1245      H1253   1.084       .  S
C1246      H1254   1.084       .  S
C1247      C1248   1.206       .  T
C1249      C1250   1.206       .  T
C1255      C1263   1.442   1_455  S
C1255      C1256   1.402   1_455  A
C1255      C1260   1.402       .  A
C1256      C1257   1.400   1_655  A
C1256      H1265   1.083       .  S
C1257      C1258   1.402       .  A
C1257      H1266   1.083       .  S
C1258      C1261   1.442       .  S
C1258      C1259   1.401       .  A
C1259      C1260   1.399       .  A
C1259      H1267   1.083       .  S
C1260      H1268   1.084       .  S
C1261      C1262   1.207       .  T
C1263      C1264   1.207       .  T
C1269      C1277   1.441       .  S
C1269      C1270   1.402       .  A
C1269      C1274   1.401       .  A
C1270      C1271   1.401       .  A
C1270      H1279   1.083       .  S
C1271      C1272   1.402       .  A
C1271      H1280   1.083       .  S
C1272      C1275   1.442       .  S
C1272      C1273   1.401       .  A
C1273      C1274   1.399       .  A
C1273      H1281   1.083       .  S
C1274      H1282   1.083       .  S
C1275      C1276   1.207       .  T
C1277      C1278   1.207       .  T
C1283      C1291   1.442       .  S
C1283      C1284   1.401       .  A
C1283      C1288   1.402       .  A
C1284      C1285   1.399       .  A
C1284      H1293   1.083       .  S
C1285      C1286   1.401       .  A
C1285      H1294   1.083       .  S
C1286      C1289   1.442       .  S
C1286      C1287   1.402       .  A
C1287      C1288   1.401       .  A
C1287      H1295   1.083       .  S
C1288      H1296   1.083       .  S
C1289      C1290   1.207       .  T
C1291      C1292   1.207       .  T
C1297      C1305   1.440       .  S
C1297      C1298   1.401       .  A
C1297      C1302   1.401   1_455  A
C1298      C1299   1.399   1_455  A
C1298      H1307   1.083       .  S
C1299      C1300   1.401       .  A
C1299      H1308   1.083       .  S
C1300      C1303   1.440       .  S
C1300      C1301   1.401       .  A
C1301      C1302   1.399       .  A
C1301      H1309   1.083       .  S
C1302      H1310   1.083       .  S
C1303      C1304   1.206       .  T
C1305      C1306   1.206       .  T
C1311      C1319   1.442       .  S
C1311      C1312   1.402       .  A
C1311      C1316   1.402       .  A
C1312      C1313   1.399       .  A
C1312      H1321   1.083       .  S
C1313      C1314   1.402       .  A
C1313      H1322   1.083       .  S
C1314      C1317   1.442       .  S
C1314      C1315   1.402       .  A
C1315      C1316   1.400       .  A
C1315      H1323   1.083       .  S
C1316      H1324   1.083       .  S
C1317      C1318   1.207       .  T
C1319      C1320   1.207       .  T
C1325      C1333   1.443       .  S
C1325      C1326   1.402       .  A
C1325      C1330   1.402       .  A
C1326      C1327   1.400       .  A
C1326      H1335   1.083       .  S
C1327      C1328   1.402       .  A
C1327      H1336   1.083       .  S
C1328      C1331   1.443       .  S
C1328      C1329   1.402       .  A
C1329      C1330   1.400       .  A
C1329      H1337   1.083       .  S
C1330      H1338   1.083       .  S
C1331      C1332   1.208       .  T
C1333      C1334   1.207       .  T
C1339      C1347   1.444       .  S
C1339      C1340   1.402       .  A
C1339      C1344   1.402       .  A
C1340      C1341   1.401       .  A
C1340      H1349   1.083       .  S
C1341      C1342   1.402       .  A
C1341      H1350   1.083       .  S
C1342      C1345   1.444       .  S
C1342      C1343   1.402       .  A
C1343      C1344   1.400       .  A
C1343      H1351   1.083       .  S
C1344      H1352   1.083       .  S
C1345      C1346   1.208       .  T
C1347      C1348   1.208       .  T
C1353      C1361   1.445       .  S
C1353      C1354   1.402       .  A
C1353      C1358   1.402       .  A
C1354      C1355   1.401       .  A
C1354      H1363   1.083       .  S
C1355      C1356   1.402       .  A
C1355      H1364   1.083       .  S
C1356      C1359   1.445       .  S
C1356      C1357   1.402       .  A
C1357      C1358   1.401       .  A
C1357      H1365   1.083       .  S
C1358      H1366   1.083       .  S
C1359      C1360   1.209       .  T
C1361      C1362   1.209       .  T
C1367      C1375   1.439       .  S
C1367      C1368   1.401       .  A
C1367      C1372   1.401       .  A
C1368      C1369   1.399       .  A
C1368      H1377   1.083       .  S
C1369      C1370   1.401       .  A
C1369      H1378   1.083   1_556  S
C1370      C1373   1.440       .  S
C1370      C1371   1.401       .  A
C1371      C1372   1.399       .  A
C1371      H1379   1.083       .  S
C1372      H1380   1.083       .  S
C1373      C1374   1.206   1_556  T
C1375      C1376   1.206       .  T
C1381      C1389   1.443       .  S
C1381      C1382   1.403       .  A
C1381      C1386   1.401       .  A
C1382      C1383   1.401       .  A
C1382      H1391   1.083       .  S
C1383      C1384   1.402       .  A
C1383      H1392   1.083       .  S
C1384      C1387   1.444       .  S
C1384      C1385   1.402       .  A
C1385      C1386   1.400       .  A
C1385      H1393   1.083       .  S
C1386      H1394   1.083       .  S
C1387      C1388   1.208       .  T
C1389      C1390   1.208       .  T
C1395      C1403   1.442       .  S
C1395      C1396   1.402       .  A
C1395      C1400   1.401       .  A
C1396      C1397   1.401       .  A
C1396      H1405   1.083       .  S
C1397      C1398   1.402       .  A
C1397      H1406   1.083       .  S
C1398      C1401   1.443       .  S
C1398      C1399   1.402       .  A
C1399      C1400   1.399       .  A
C1399      H1407   1.083       .  S
C1400      H1408   1.084       .  S
C1401      C1402   1.208       .  T
C1403      C1404   1.207   1_545  T
C1409      C1417   1.440       .  S
C1409      C1410   1.401       .  A
C1409      C1414   1.401       .  A
C1410      C1411   1.399       .  A
C1410      H1419   1.083       .  S
C1411      C1412   1.401       .  A
C1411      H1420   1.083       .  S
C1412      C1415   1.440       .  S
C1412      C1413   1.401       .  A
C1413      C1414   1.399       .  A
C1413      H1421   1.083       .  S
C1414      H1422   1.083       .  S
C1415      C1416   1.206       .  T
C1417      C1418   1.206       .  T
C1423      C1431   1.443       .  S
C1423      C1424   1.402       .  A
C1423      C1428   1.402       .  A
C1424      C1425   1.400       .  A
C1424      H1433   1.083       .  S
C1425      C1426   1.401       .  A
C1425      H1434   1.083       .  S
C1426      C1429   1.443       .  S
C1426      C1427   1.402       .  A
C1427      C1428   1.401       .  A
C1427      H1435   1.083       .  S
C1428      H1436   1.083       .  S
C1429      C1430   1.208       .  T
C1431      C1432   1.208       .  T
C1437      C1445   1.447       .  S
C1437      C1438   1.402       .  A
C1437      C1442   1.403       .  A
C1438      C1439   1.401       .  A
C1438      H1447   1.083       .  S
C1439      C1440   1.402       .  A
C1439      H1448   1.083       .  S
C1440      C1443   1.446       .  S
C1440      C1441   1.403       .  A
C1441      C1442   1.403       .  A
C1441      H1449   1.083       .  S
C1442      H1450   1.083       .  S
C1443      C1444   1.210       .  T
C1445      C1446   1.210       .  T
C1451      C1459   1.445       .  S
C1451      C1452   1.403       .  A
C1451      C1456   1.402       .  A
C1452      C1453   1.401       .  A
C1452      H1461   1.083       .  S
C1453      C1454   1.402       .  A
C1453      H1462   1.083       .  S
C1454      C1457   1.445       .  S
C1454      C1455   1.403       .  A
C1455      C1456   1.401       .  A
C1455      H1463   1.083       .  S
C1456      H1464   1.083       .  S
C1457      C1458   1.209       .  T
C1459      C1460   1.209       .  T
C1465      C1473   1.443       .  S
C1465      C1466   1.402       .  A
C1465      C1470   1.402       .  A
C1466      C1467   1.400       .  A
C1466      H1475   1.083       .  S
C1467      C1468   1.402       .  A
C1467      H1476   1.083       .  S
C1468      C1471   1.443       .  S
C1468      C1469   1.402       .  A
C1469      C1470   1.400       .  A
C1469      H1477   1.083       .  S
C1470      H1478   1.083       .  S
C1471      C1472   1.208       .  T
C1473      C1474   1.208       .  T
C1479      C1487   1.441       .  S
C1479      C1480   1.401       .  A
C1479      C1484   1.402       .  A
C1480      C1481   1.399       .  A
C1480      H1489   1.083       .  S
C1481      C1482   1.401       .  A
C1481      H1490   1.083       .  S
C1482      C1485   1.441       .  S
C1482      C1483   1.401       .  A
C1483      C1484   1.399       .  A
C1483      H1491   1.083       .  S
C1484      H1492   1.083       .  S
C1485      C1486   1.206       .  T
C1487      C1488   1.207       .  T
C1493      C1501   1.442       .  S
C1493      C1494   1.401       .  A
C1493      C1498   1.402       .  A
C1494      C1495   1.400       .  A
C1494      H1503   1.083       .  S
C1495      C1496   1.402       .  A
C1495      H1504   1.083       .  S
C1496      C1499   1.442       .  S
C1496      C1497   1.401       .  A
C1497      C1498   1.399       .  A
C1497      H1505   1.083       .  S
C1498      H1506   1.083       .  S
C1499      C1500   1.207       .  T
C1501      C1502   1.207       .  T
C1507      C1515   1.439       .  S
C1507      C1508   1.401       .  A
C1507      C1512   1.401       .  A
C1508      C1509   1.398       .  A
C1508      H1517   1.083       .  S
C1509      C1510   1.401       .  A
C1509      H1518   1.083       .  S
C1510      C1513   1.439       .  S
C1510      C1511   1.401       .  A
C1511      C1512   1.399       .  A
C1511      H1519   1.083       .  S
C1512      H1520   1.083       .  S
C1513      C1514   1.205       .  T
C1515      C1516   1.205       .  T
C1521      C1529   1.441       .  S
C1521      C1522   1.402       .  A
C1521      C1526   1.401       .  A
C1522      C1523   1.400       .  A
C1522      H1531   1.083       .  S
C1523      C1524   1.402       .  A
C1523      H1532   1.083       .  S
C1524      C1527   1.441       .  S
C1524      C1525   1.402       .  A
C1525      C1526   1.399       .  A
C1525      H1533   1.083       .  S
C1526      H1534   1.083       .  S
C1527      C1528   1.207       .  T
C1529      C1530   1.207       .  T
C1535      C1543   1.440       .  S
C1535      C1536   1.401       .  A
C1535      C1540   1.401       .  A
C1536      C1537   1.399       .  A
C1536      H1545   1.083       .  S
C1537      C1538   1.401       .  A
C1537      H1546   1.083       .  S
C1538      C1541   1.440       .  S
C1538      C1539   1.401       .  A
C1539      C1540   1.399       .  A
C1539      H1547   1.083       .  S
C1540      H1548   1.083       .  S
C1541      C1542   1.206       .  T
C1543      C1544   1.206       .  T
C1549      C1557   1.441       .  S
C1549      C1550   1.402       .  A
C1549      C1554   1.401       .  A
C1550      C1551   1.400       .  A
C1550      H1559   1.083       .  S
C1551      C1552   1.402       .  A
C1551      H1560   1.083       .  S
C1552      C1555   1.441       .  S
C1552      C1553   1.401       .  A
C1553      C1554   1.399       .  A
C1553      H1561   1.084       .  S
C1554      H1562   1.083       .  S
C1555      C1556   1.207       .  T
C1557      C1558   1.207       .  T
C1563      C1571   1.441       .  S
C1563      C1564   1.402       .  A
C1563      C1568   1.401       .  A
C1564      C1565   1.400       .  A
C1564      H1573   1.083       .  S
C1565      C1566   1.402       .  A
C1565      H1574   1.083       .  S
C1566      C1569   1.441       .  S
C1566      C1567   1.401       .  A
C1567      C1568   1.399       .  A
C1567      H1575   1.083       .  S
C1568      H1576   1.083       .  S
C1569      C1570   1.206   1_655  T
C1571      C1572   1.207       .  T
C1577      C1585   1.441       .  S
C1577      C1578   1.401       .  A
C1577      C1582   1.402       .  A
C1578      C1579   1.400       .  A
C1578      H1587   1.083       .  S
C1579      C1580   1.402       .  A
C1579      H1588   1.083       .  S
C1580      C1583   1.441       .  S
C1580      C1581   1.401       .  A
C1581      C1582   1.399       .  A
C1581      H1589   1.083       .  S
C1582      H1590   1.083       .  S
C1583      C1584   1.207       .  T
C1585      C1586   1.207       .  T
C1591      C1599   1.443       .  S
C1591      C1592   1.402       .  A
C1591      C1596   1.401       .  A
C1592      C1593   1.401       .  A
C1592      H1601   1.083       .  S
C1593      C1594   1.402       .  A
C1593      H1602   1.083       .  S
C1594      C1597   1.443       .  S
C1594      C1595   1.402       .  A
C1595      C1596   1.399       .  A
C1595      H1603   1.083       .  S
C1596      H1604   1.083       .  S
C1597      C1598   1.208       .  T
C1599      C1600   1.208       .  T
C1605      C1613   1.444       .  S
C1605      C1606   1.402       .  A
C1605      C1610   1.402       .  A
C1606      C1607   1.402       .  A
C1606      H1615   1.083       .  S
C1607      C1608   1.403       .  A
C1607      H1616   1.083       .  S
C1608      C1611   1.444       .  S
C1608      C1609   1.402       .  A
C1609      C1610   1.400       .  A
C1609      H1617   1.083       .  S
C1610      H1618   1.083       .  S
C1611      C1612   1.209       .  T
C1613      C1614   1.208       .  T
C1619      C1627   1.442       .  S
C1619      C1620   1.402       .  A
C1619      C1624   1.401       .  A
C1620      C1621   1.400       .  A
C1620      H1629   1.083       .  S
C1621      C1622   1.402       .  A
C1621      H1630   1.083       .  S
C1622      C1625   1.442       .  S
C1622      C1623   1.402       .  A
C1623      C1624   1.400       .  A
C1623      H1631   1.083       .  S
C1624      H1632   1.083       .  S
C1625      C1626   1.207       .  T
C1627      C1628   1.207       .  T
C1633      C1641   1.439       .  S
C1633      C1634   1.401       .  A
C1633      C1638   1.401       .  A
C1634      C1635   1.398       .  A
C1634      H1643   1.083       .  S
C1635      C1636   1.401       .  A
C1635      H1644   1.084       .  S
C1636      C1639   1.438       .  S
C1636      C1637   1.401       .  A
C1637      C1638   1.399       .  A
C1637      H1645   1.083       .  S
C1638      H1646   1.083       .  S
C1639      C1640   1.205       .  T
C1641      C1642   1.205       .  T
C1647      C1655   1.442       .  S
C1647      C1648   1.402       .  A
C1647      C1652   1.402       .  A
C1648      C1649   1.400       .  A
C1648      H1657   1.083       .  S
C1649      C1650   1.402       .  A
C1649      H1658   1.083       .  S
C1650      C1653   1.442       .  S
C1650      C1651   1.402       .  A
C1651      C1652   1.400       .  A
C1651      H1659   1.083       .  S
C1652      H1660   1.083       .  S
C1653      C1654   1.207       .  T
C1655      C1656   1.207       .  T
C1661      C1669   1.440       .  S
C1661      C1662   1.402       .  A
C1661      C1666   1.401       .  A
C1662      C1663   1.400       .  A
C1662      H1671   1.083       .  S
C1663      C1664   1.402       .  A
C1663      H1672   1.083       .  S
C1664      C1667   1.440       .  S
C1664      C1665   1.401       .  A
C1665      C1666   1.398       .  A
C1665      H1673   1.083       .  S
C1666      H1674   1.083       .  S
C1667      C1668   1.206       .  T
C1669      C1670   1.206       .  T
C1675      C1683   1.441       .  S
C1675      C1676   1.402       .  A
C1675      C1680   1.402       .  A
C1676      C1677   1.400       .  A
C1676      H1685   1.083       .  S
C1677      C1678   1.402       .  A
C1677      H1686   1.083       .  S
C1678      C1681   1.441       .  S
C1678      C1679   1.401       .  A
C1679      C1680   1.399       .  A
C1679      H1687   1.083       .  S
C1680      H1688   1.083       .  S
C1681      C1682   1.207       .  T
C1683      C1684   1.207       .  T
C1689      C1697   1.442       .  S
C1689      C1690   1.401       .  A
C1689      C1694   1.403       .  A
C1690      C1691   1.398       .  A
C1690      H1699   1.083       .  S
C1691      C1692   1.401       .  A
C1691      H1700   1.084       .  S
C1692      C1695   1.442       .  S
C1692      C1693   1.402       .  A
C1693      C1694   1.401       .  A
C1693      H1701   1.083       .  S
C1694      H1702   1.083       .  S
C1695      C1696   1.207       .  T
C1697      C1698   1.207       .  T
C1703      C1711   1.441       .  S
C1703      C1704   1.402       .  A
C1703      C1708   1.401       .  A
C1704      C1705   1.400       .  A
C1704      H1713   1.083       .  S
C1705      C1706   1.401       .  A
C1705      H1714   1.083       .  S
C1706      C1709   1.441       .  S
C1706      C1707   1.402       .  A
C1707      C1708   1.399       .  A
C1707      H1715   1.083       .  S
C1708      H1716   1.083       .  S
C1709      C1710   1.206       .  T
C1711      C1712   1.206       .  T
C1717      C1725   1.435       .  S
C1717      C1718   1.401       .  A
C1717      C1722   1.400       .  A
C1718      C1719   1.397       .  A
C1718      H1727   1.084       .  S
C1719      C1720   1.401       .  A
C1719      H1728   1.084       .  S
C1720      C1723   1.435       .  S
C1720      C1721   1.400       .  A
C1721      C1722   1.397       .  A
C1721      H1729   1.083       .  S
C1722      H1730   1.083       .  S
C1723      C1724   1.203       .  T
C1725      C1726   1.203       .  T
C1731      C1739   1.441       .  S
C1731      C1732   1.402       .  A
C1731      C1736   1.401       .  A
C1732      C1733   1.400       .  A
C1732      H1741   1.083       .  S
C1733      C1734   1.402       .  A
C1733      H1742   1.083       .  S
C1734      C1737   1.441       .  S
C1734      C1735   1.401       .  A
C1735      C1736   1.399       .  A
C1735      H1743   1.083       .  S
C1736      H1744   1.083       .  S
C1737      C1738   1.207       .  T
C1739      C1740   1.207       .  T
C1745      C1753   1.443       .  S
C1745      C1746   1.402       .  A
C1745      C1750   1.401       .  A
C1746      C1747   1.400       .  A
C1746      H1755   1.083       .  S
C1747      C1748   1.401       .  A
C1747      H1756   1.083       .  S
C1748      C1751   1.443       .  S
C1748      C1749   1.403       .  A
C1749      C1750   1.400       .  A
C1749      H1757   1.083       .  S
C1750      H1758   1.083       .  S
C1751      C1752   1.208       .  T
C1753      C1754   1.208       .  T
C1759      C1767   1.442       .  S
C1759      C1760   1.401       .  A
C1759      C1764   1.402       .  A
C1760      C1761   1.399       .  A
C1760      H1769   1.083       .  S
C1761      C1762   1.402       .  A
C1761      H1770   1.083       .  S
C1762      C1765   1.442       .  S
C1762      C1763   1.402       .  A
C1763      C1764   1.401       .  A
C1763      H1771   1.083       .  S
C1764      H1772   1.083       .  S
C1765      C1766   1.207       .  T
C1767      C1768   1.207       .  T
C1773      C1781   1.442       .  S
C1773      C1774   1.402       .  A
C1773      C1778   1.402       .  A
C1774      C1775   1.399       .  A
C1774      H1783   1.084       .  S
C1775      C1776   1.401       .  A
C1775      H1784   1.083       .  S
C1776      C1779   1.442       .  S
C1776      C1777   1.402       .  A
C1777      C1778   1.401       .  A
C1777      H1785   1.083       .  S
C1778      H1786   1.083       .  S
C1779      C1780   1.207       .  T
C1781      C1782   1.207       .  T
C1787      C1795   1.441       .  S
C1787      C1788   1.401       .  A
C1787      C1792   1.402       .  A
C1788      C1789   1.399       .  A
C1788      H1797   1.083       .  S
C1789      C1790   1.401       .  A
C1789      H1798   1.083       .  S
C1790      C1793   1.442       .  S
C1790      C1791   1.402       .  A
C1791      C1792   1.400       .  A
C1791      H1799   1.083       .  S
C1792      H1800   1.083       .  S
C1793      C1794   1.207       .  T
C1795      C1796   1.207       .  T
C1801      C1809   1.442       .  S
C1801      C1802   1.401       .  A
C1801      C1806   1.402       .  A
C1802      C1803   1.399       .  A
C1802      H1811   1.083       .  S
C1803      C1804   1.402       .  A
C1803      H1812   1.084       .  S
C1804      C1807   1.442       .  S
C1804      C1805   1.402       .  A
C1805      C1806   1.401       .  A
C1805      H1813   1.083       .  S
C1806      H1814   1.083       .  S
C1807      C1808   1.207       .  T
C1809      C1810   1.207       .  T
C1815      C1823   1.441       .  S
C1815      C1816   1.401       .  A
C1815      C1820   1.402       .  A
C1816      C1817   1.399       .  A
C1816      H1825   1.083       .  S
C1817      C1818   1.401       .  A
C1817      H1826   1.083       .  S
C1818      C1821   1.441       .  S
C1818      C1819   1.402       .  A
C1819      C1820   1.400       .  A
C1819      H1827   1.083       .  S
C1820      H1828   1.083       .  S
C1821      C1822   1.207       .  T
C1823      C1824   1.207       .  T
C1829      C1837   1.442       .  S
C1829      C1830   1.402       .  A
C1829      C1834   1.401       .  A
C1830      C1831   1.400       .  A
C1830      H1839   1.083       .  S
C1831      C1832   1.401       .  A
C1831      H1840   1.083       .  S
C1832      C1835   1.441       .  S
C1832      C1833   1.402       .  A
C1833      C1834   1.399       .  A
C1833      H1841   1.083       .  S
C1834      H1842   1.083       .  S
C1835      C1836   1.207       .  T
C1837      C1838   1.207       .  T
C1843      C1851   1.443       .  S
C1843      C1844   1.402       .  A
C1843      C1848   1.402       .  A
C1844      C1845   1.400       .  A
C1844      H1853   1.083       .  S
C1845      C1846   1.402       .  A
C1845      H1854   1.083       .  S
C1846      C1849   1.443       .  S
C1846      C1847   1.402       .  A
C1847      C1848   1.401       .  A
C1847      H1855   1.083       .  S
C1848      H1856   1.083       .  S
C1849      C1850   1.208       .  T
C1851      C1852   1.208       .  T
C1857      C1865   1.439       .  S
C1857      C1858   1.401       .  A
C1857      C1862   1.402       .  A
C1858      C1859   1.398       .  A
C1858      H1867   1.083       .  S
C1859      C1860   1.401       .  A
C1859      H1868   1.083       .  S
C1860      C1863   1.439       .  S
C1860      C1861   1.401       .  A
C1861      C1862   1.399       .  A
C1861      H1869   1.083       .  S
C1862      H1870   1.083       .  S
C1863      C1864   1.205       .  T
C1865      C1866   1.206       .  T
C1871      C1879   1.440       .  S
C1871      C1872   1.402       .  A
C1871      C1876   1.401       .  A
C1872      C1873   1.399       .  A
C1872      H1881   1.083       .  S
C1873      C1874   1.402       .  A
C1873      H1882   1.083       .  S
C1874      C1877   1.440       .  S
C1874      C1875   1.401       .  A
C1875      C1876   1.399       .  A
C1875      H1883   1.083       .  S
C1876      H1884   1.083       .  S
C1877      C1878   1.206       .  T
C1879      C1880   1.206       .  T
C1885      C1893   1.441       .  S
C1885      C1886   1.402       .  A
C1885      C1890   1.401       .  A
C1886      C1887   1.401       .  A
C1886      H1895   1.083       .  S
C1887      C1888   1.402       .  A
C1887      H1896   1.083       .  S
C1888      C1891   1.442       .  S
C1888      C1889   1.401       .  A
C1889      C1890   1.399       .  A
C1889      H1897   1.083       .  S
C1890      H1898   1.084       .  S
C1891      C1892   1.207       .  T
C1893      C1894   1.207       .  T
C1899      C1907   1.442       .  S
C1899      C1900   1.402       .  A
C1899      C1904   1.401       .  A
C1900      C1901   1.400       .  A
C1900      H1909   1.083       .  S
C1901      C1902   1.402       .  A
C1901      H1910   1.083       .  S
C1902      C1905   1.442       .  S
C1902      C1903   1.402       .  A
C1903      C1904   1.399       .  A
C1903      H1911   1.083       .  S
C1904      H1912   1.083       .  S
C1905      C1906   1.207       .  T
C1907      C1908   1.207       .  T
C1913      C1921   1.441       .  S
C1913      C1914   1.402       .  A
C1913      C1918   1.402       .  A
C1914      C1915   1.400       .  A
C1914      H1923   1.083       .  S
C1915      C1916   1.402   1_545  A
C1915      H1924   1.083   1_545  S
C1916      C1919   1.441       .  S
C1916      C1917   1.401   1_565  A
C1917      C1918   1.399       .  A
C1917      H1925   1.083       .  S
C1918      H1926   1.083       .  S
C1919      C1920   1.207       .  T
C1921      C1922   1.207       .  T
C1927      C1935   1.441       .  S
C1927      C1928   1.402       .  A
C1927      C1932   1.401       .  A
C1928      C1929   1.400       .  A
C1928      H1937   1.083       .  S
C1929      C1930   1.402   1_545  A
C1929      H1938   1.083       .  S
C1930      C1933   1.441       .  S
C1930      C1931   1.401       .  A
C1931      C1932   1.399   1_565  A
C1931      H1939   1.083       .  S
C1932      H1940   1.083   1_545  S
C1933      C1934   1.207       .  T
C1935      C1936   1.207       .  T
C1941      C1949   1.443       .  S
C1941      C1942   1.402       .  A
C1941      C1946   1.402       .  A
C1942      C1943   1.399       .  A
C1942      H1951   1.083       .  S
C1943      C1944   1.401       .  A
C1943      H1952   1.083       .  S
C1944      C1947   1.443       .  S
C1944      C1945   1.402       .  A
C1945      C1946   1.401       .  A
C1945      H1953   1.083       .  S
C1946      H1954   1.083       .  S
C1947      C1948   1.208       .  T
C1949      C1950   1.208       .  T
C1955      C1963   1.444       .  S
C1955      C1956   1.402       .  A
C1955      C1960   1.402       .  A
C1956      C1957   1.402       .  A
C1956      H1965   1.083       .  S
C1957      C1958   1.403       .  A
C1957      H1966   1.083       .  S
C1958      C1961   1.444       .  S
C1958      C1959   1.401       .  A
C1959      C1960   1.400       .  A
C1959      H1967   1.083       .  S
C1960      H1968   1.083       .  S
C1961      C1962   1.209       .  T
C1963      C1964   1.209       .  T
C1969      C1977   1.442       .  S
C1969      C1970   1.402       .  A
C1969      C1974   1.402       .  A
C1970      C1971   1.400       .  A
C1970      H1979   1.083       .  S
C1971      C1972   1.402       .  A
C1971      H1980   1.083       .  S
C1972      C1975   1.442       .  S
C1972      C1973   1.402       .  A
C1973      C1974   1.400       .  A
C1973      H1981   1.083       .  S
C1974      H1982   1.083       .  S
C1975      C1976   1.207       .  T
C1977      C1978   1.207       .  T
C1983      C1991   1.445       .  S
C1983      C1984   1.403       .  A
C1983      C1988   1.402       .  A
C1984      C1985   1.402       .  A
C1984      H1993   1.083       .  S
C1985      C1986   1.403       .  A
C1985      H1994   1.083       .  S
C1986      C1989   1.445       .  S
C1986      C1987   1.402       .  A
C1987      C1988   1.400       .  A
C1987      H1995   1.083       .  S
C1988      H1996   1.083       .  S
C1989      C1990   1.209       .  T
C1991      C1992   1.209       .  T
C1997      C2005   1.441       .  S
C1997      C1998   1.402       .  A
C1997      C2002   1.401       .  A
C1998      C1999   1.400       .  A
C1998      H2007   1.083       .  S
C1999      C2000   1.402       .  A
C1999      H2008   1.083       .  S
C2000      C2003   1.441       .  S
C2000      C2001   1.402       .  A
C2001      C2002   1.399       .  A
C2001      H2009   1.083       .  S
C2002      H2010   1.083       .  S
C2003      C2004   1.207       .  T
C2005      C2006   1.207       .  T
C2011      C2019   1.444       .  S
C2011      C2012   1.401       .  A
C2011      C2016   1.403       .  A
C2012      C2013   1.400       .  A
C2012      H2021   1.083       .  S
C2013      C2014   1.402       .  A
C2013      H2022   1.083       .  S
C2014      C2017   1.445       .  S
C2014      C2015   1.402       .  A
C2015      C2016   1.402       .  A
C2015      H2023   1.083       .  S
C2016      H2024   1.083       .  S
C2017      C2018   1.209       .  T
C2019      C2020   1.209       .  T
C2025      C2033   1.445       .  S
C2025      C2026   1.402       .  A
C2025      C2030   1.403       .  A
C2026      C2027   1.400       .  A
C2026      H2035   1.083       .  S
C2027      C2028   1.402       .  A
C2027      H2036   1.083       .  S
C2028      C2031   1.445       .  S
C2028      C2029   1.402       .  A
C2029      C2030   1.402       .  A
C2029      H2037   1.083       .  S
C2030      H2038   1.083       .  S
C2031      C2032   1.209       .  T
C2033      C2034   1.209       .  T
C2039      C2047   1.445       .  S
C2039      C2040   1.402       .  A
C2039      C2044   1.402       .  A
C2040      C2041   1.401       .  A
C2040      H2049   1.083       .  S
C2041      C2042   1.402       .  A
C2041      H2050   1.083       .  S
C2042      C2045   1.445       .  S
C2042      C2043   1.403       .  A
C2043      C2044   1.402       .  A
C2043      H2051   1.083       .  S
C2044      H2052   1.083       .  S
C2045      C2046   1.209       .  T
C2047      C2048   1.209       .  T
C2053      C2061   1.442       .  S
C2053      C2054   1.401       .  A
C2053      C2058   1.402       .  A
C2054      C2055   1.399       .  A
C2054      H2063   1.083       .  S
C2055      C2056   1.402       .  A
C2055      H2064   1.083       .  S
C2056      C2059   1.442       .  S
C2056      C2057   1.402       .  A
C2057      C2058   1.400       .  A
C2057      H2065   1.083       .  S
C2058      H2066   1.083       .  S
C2059      C2060   1.207       .  T
C2061      C2062   1.207       .  T
C2067      C2075   1.442       .  S
C2067      C2068   1.402       .  A
C2067      C2072   1.402       .  A
C2068      C2069   1.400       .  A
C2068      H2077   1.083       .  S
C2069      C2070   1.402       .  A
C2069      H2078   1.083       .  S
C2070      C2073   1.442       .  S
C2070      C2071   1.402       .  A
C2071      C2072   1.400       .  A
C2071      H2079   1.083       .  S
C2072      H2080   1.083       .  S
C2073      C2074   1.207       .  T
C2075      C2076   1.207       .  T
C2081      C2089   1.440       .  S
C2081      C2082   1.402       .  A
C2081      C2086   1.401   1_565  A
C2082      C2083   1.399       .  A
C2082      H2091   1.084       .  S
C2083      C2084   1.401       .  A
C2083      H2092   1.084       .  S
C2084      C2087   1.440       .  S
C2084      C2085   1.401       .  A
C2085      C2086   1.399   1_565  A
C2085      H2093   1.083   1_565  S
C2086      H2094   1.083       .  S
C2087      C2088   1.206       .  T
C2089      C2090   1.206       .  T
C2095      C2103   1.443       .  S
C2095      C2096   1.402       .  A
C2095      C2100   1.402       .  A
C2096      C2097   1.400       .  A
C2096      H2105   1.083       .  S
C2097      C2098   1.402       .  A
C2097      H2106   1.083       .  S
C2098      C2101   1.444       .  S
C2098      C2099   1.402       .  A
C2099      C2100   1.401       .  A
C2099      H2107   1.083       .  S
C2100      H2108   1.083       .  S
C2101      C2102   1.208       .  T
C2103      C2104   1.208       .  T
C2109      C2117   1.442       .  S
C2109      C2110   1.401       .  A
C2109      C2114   1.402       .  A
C2110      C2111   1.399       .  A
C2110      H2119   1.083       .  S
C2111      C2112   1.402       .  A
C2111      H2120   1.083       .  S
C2112      C2115   1.442       .  S
C2112      C2113   1.402       .  A
C2113      C2114   1.400       .  A
C2113      H2121   1.083       .  S
C2114      H2122   1.083       .  S
C2115      C2116   1.207       .  T
C2117      C2118   1.207       .  T
C2123      C2131   1.442       .  S
C2123      C2124   1.402       .  A
C2123      C2128   1.401       .  A
C2124      C2125   1.400       .  A
C2124      H2133   1.083       .  S
C2125      C2126   1.402       .  A
C2125      H2134   1.083       .  S
C2126      C2129   1.442   1_655  S
C2126      C2127   1.401       .  A
C2127      C2128   1.399       .  A
C2127      H2135   1.083   1_655  S
C2128      H2136   1.083       .  S
C2129      C2130   1.207       .  T
C2131      C2132   1.207       .  T
C2137      C2145   1.442       .  S
C2137      C2138   1.402       .  A
C2137      C2142   1.401       .  A
C2138      C2139   1.400       .  A
C2138      H2147   1.083       .  S
C2139      C2140   1.402       .  A
C2139      H2148   1.083       .  S
C2140      C2143   1.442       .  S
C2140      C2141   1.402       .  A
C2141      C2142   1.400       .  A
C2141      H2149   1.083       .  S
C2142      H2150   1.083   1_545  S
C2143      C2144   1.207       .  T
C2145      C2146   1.207   1_545  T
C2151      C2159   1.443       .  S
C2151      C2152   1.402       .  A
C2151      C2156   1.402       .  A
C2152      C2153   1.402       .  A
C2152      H2161   1.083       .  S
C2153      C2154   1.403       .  A
C2153      H2162   1.083       .  S
C2154      C2157   1.443       .  S
C2154      C2155   1.401       .  A
C2155      C2156   1.399       .  A
C2155      H2163   1.084       .  S
C2156      H2164   1.084       .  S
C2157      C2158   1.208       .  T
C2159      C2160   1.208       .  T
C2165      C2173   1.441   1_655  S
C2165      C2166   1.402   1_655  A
C2165      C2170   1.401       .  A
C2166      C2167   1.400   1_455  A
C2166      H2175   1.083       .  S
C2167      C2168   1.402       .  A
C2167      H2176   1.083       .  S
C2168      C2171   1.441       .  S
C2168      C2169   1.401       .  A
C2169      C2170   1.399       .  A
C2169      H2177   1.083       .  S
C2170      H2178   1.083       .  S
C2171      C2172   1.207       .  T
C2173      C2174   1.206       .  T
C2179      C2187   1.439       .  S
C2179      C2180   1.402       .  A
C2179      C2184   1.401       .  A
C2180      C2181   1.399       .  A
C2180      H2189   1.083       .  S
C2181      C2182   1.401       .  A
C2181      H2190   1.083       .  S
C2182      C2185   1.438       .  S
C2182      C2183   1.401       .  A
C2183      C2184   1.398       .  A
C2183      H2191   1.084       .  S
C2184      H2192   1.083       .  S
C2185      C2186   1.205       .  T
C2187      C2188   1.205       .  T
C2193      C2201   1.444       .  S
C2193      C2194   1.403       .  A
C2193      C2198   1.402       .  A
C2194      C2195   1.401       .  A
C2194      H2203   1.083       .  S
C2195      C2196   1.402       .  A
C2195      H2204   1.083       .  S
C2196      C2199   1.444       .  S
C2196      C2197   1.402       .  A
C2197      C2198   1.400       .  A
C2197      H2205   1.083       .  S
C2198      H2206   1.083       .  S
C2199      C2200   1.208       .  T
C2201      C2202   1.209       .  T
C2207      C2215   1.443       .  S
C2207      C2208   1.402       .  A
C2207      C2212   1.402       .  A
C2208      C2209   1.400       .  A
C2208      H2217   1.083       .  S
C2209      C2210   1.401       .  A
C2209      H2218   1.083       .  S
C2210      C2213   1.443       .  S
C2210      C2211   1.403       .  A
C2211      C2212   1.401       .  A
C2211      H2219   1.083       .  S
C2212      H2220   1.083       .  S
C2213      C2214   1.208       .  T
C2215      C2216   1.208       .  T
C2221      C2229   1.443       .  S
C2221      C2222   1.402       .  A
C2221      C2226   1.402       .  A
C2222      C2223   1.400       .  A
C2222      H2231   1.083       .  S
C2223      C2224   1.402       .  A
C2223      H2232   1.083       .  S
C2224      C2227   1.443       .  S
C2224      C2225   1.402       .  A
C2225      C2226   1.400       .  A
C2225      H2233   1.083       .  S
C2226      H2234   1.083       .  S
C2227      C2228   1.208       .  T
C2229      C2230   1.208       .  T
C2235      C2243   1.442       .  S
C2235      C2236   1.401       .  A
C2235      C2240   1.402       .  A
C2236      C2237   1.399       .  A
C2236      H2245   1.083       .  S
C2237      C2238   1.402       .  A
C2237      H2246   1.083       .  S
C2238      C2241   1.442       .  S
C2238      C2239   1.402       .  A
C2239      C2240   1.401       .  A
C2239      H2247   1.083       .  S
C2240      H2248   1.083       .  S
C2241      C2242   1.208       .  T
C2243      C2244   1.207   1_545  T
C2249      C2257   1.442       .  S
C2249      C2250   1.402       .  A
C2249      C2254   1.402       .  A
C2250      C2251   1.399       .  A
C2250      H2259   1.083       .  S
C2251      C2252   1.401       .  A
C2251      H2260   1.083       .  S
C2252      C2255   1.442       .  S
C2252      C2253   1.402       .  A
C2253      C2254   1.400       .  A
C2253      H2261   1.083       .  S
C2254      H2262   1.083       .  S
C2255      C2256   1.207       .  T
C2257      C2258   1.207       .  T
C2263      C2271   1.442       .  S
C2263      C2264   1.402       .  A
C2263      C2268   1.402       .  A
C2264      C2265   1.400       .  A
C2264      H2273   1.083       .  S
C2265      C2266   1.402       .  A
C2265      H2274   1.083       .  S
C2266      C2269   1.442       .  S
C2266      C2267   1.401   1_556  A
C2267      C2268   1.400   1_554  A
C2267      H2275   1.083       .  S
C2268      H2276   1.083   1_556  S
C2269      C2270   1.207       .  T
C2271      C2272   1.208       .  T
C2277      C2285   1.440       .  S
C2277      C2278   1.401       .  A
C2277      C2282   1.402       .  A
C2278      C2279   1.399       .  A
C2278      H2287   1.083       .  S
C2279      C2280   1.401       .  A
C2279      H2288   1.083       .  S
C2280      C2283   1.440       .  S
C2280      C2281   1.401       .  A
C2281      C2282   1.399       .  A
C2281      H2289   1.083       .  S
C2282      H2290   1.083       .  S
C2283      C2284   1.206       .  T
C2285      C2286   1.206       .  T
C2291      C2299   1.442       .  S
C2291      C2292   1.402       .  A
C2291      C2296   1.401       .  A
C2292      C2293   1.401       .  A
C2292      H2301   1.083       .  S
C2293      C2294   1.402       .  A
C2293      H2302   1.083       .  S
C2294      C2297   1.442       .  S
C2294      C2295   1.401       .  A
C2295      C2296   1.399       .  A
C2295      H2303   1.083       .  S
C2296      H2304   1.083       .  S
C2297      C2298   1.207       .  T
C2299      C2300   1.207       .  T
C2305      C2313   1.442       .  S
C2305      C2306   1.402       .  A
C2305      C2310   1.401       .  A
C2306      C2307   1.401       .  A
C2306      H2315   1.083       .  S
C2307      C2308   1.402       .  A
C2307      H2316   1.083       .  S
C2308      C2311   1.443       .  S
C2308      C2309   1.402       .  A
C2309      C2310   1.399       .  A
C2309      H2317   1.083       .  S
C2310      H2318   1.084       .  S
C2311      C2312   1.208       .  T
C2313      C2314   1.207       .  T
C2319      C2327   1.444       .  S
C2319      C2320   1.402       .  A
C2319      C2324   1.402       .  A
C2320      C2321   1.400       .  A
C2320      H2329   1.083       .  S
C2321      C2322   1.402       .  A
C2321      H2330   1.083       .  S
C2322      C2325   1.444       .  S
C2322      C2323   1.403       .  A
C2323      C2324   1.401       .  A
C2323      H2331   1.083       .  S
C2324      H2332   1.083       .  S
C2325      C2326   1.208       .  T
C2327      C2328   1.208       .  T
C2333      C2341   1.444       .  S
C2333      C2334   1.403       .  A
C2333      C2338   1.401       .  A
C2334      C2335   1.403       .  A
C2334      H2343   1.083       .  S
C2335      C2336   1.403       .  A
C2335      H2344   1.083       .  S
C2336      C2339   1.444       .  S
C2336      C2337   1.401       .  A
C2337      C2338   1.398       .  A
C2337      H2345   1.084       .  S
C2338      H2346   1.084       .  S
C2339      C2340   1.208       .  T
C2341      C2342   1.209       .  T
C2347      C2355   1.443       .  S
C2347      C2348   1.402       .  A
C2347      C2352   1.402   1_556  A
C2348      C2349   1.400       .  A
C2348      H2357   1.084       .  S
C2349      C2350   1.401       .  A
C2349      H2358   1.083       .  S
C2350      C2353   1.443       .  S
C2350      C2351   1.403   1_556  A
C2351      C2352   1.401       .  A
C2351      H2359   1.083       .  S
C2352      H2360   1.083       .  S
C2353      C2354   1.208       .  T
C2355      C2356   1.208       .  T
C2361      C2369   1.445       .  S
C2361      C2362   1.402       .  A
C2361      C2366   1.402       .  A
C2362      C2363   1.401       .  A
C2362      H2371   1.083       .  S
C2363      C2364   1.403       .  A
C2363      H2372   1.083       .  S
C2364      C2367   1.445       .  S
C2364      C2365   1.402       .  A
C2365      C2366   1.401       .  A
C2365      H2373   1.083       .  S
C2366      H2374   1.083       .  S
C2367      C2368   1.209       .  T
C2369      C2370   1.209       .  T
C2375      C2383   1.442       .  S
C2375      C2376   1.402   1_565  A
C2375      C2380   1.401       .  A
C2376      C2377   1.401       .  A
C2376      H2385   1.083       .  S
C2377      C2378   1.402   1_545  A
C2377      H2386   1.083       .  S
C2378      C2381   1.442       .  S
C2378      C2379   1.401       .  A
C2379      C2380   1.399       .  A
C2379      H2387   1.083       .  S
C2380      H2388   1.083       .  S
C2381      C2382   1.207       .  T
C2383      C2384   1.207       .  T
C2389      C2397   1.441       .  S
C2389      C2390   1.401       .  A
C2389      C2394   1.402       .  A
C2390      C2391   1.399       .  A
C2390      H2399   1.083       .  S
C2391      C2392   1.401       .  A
C2391      H2400   1.083       .  S
C2392      C2395   1.441       .  S
C2392      C2393   1.402       .  A
C2393      C2394   1.400       .  A
C2393      H2401   1.083       .  S
C2394      H2402   1.083       .  S
C2395      C2396   1.207       .  T
C2397      C2398   1.207       .  T
C2403      C2411   1.441       .  S
C2403      C2404   1.401       .  A
C2403      C2408   1.402       .  A
C2404      C2405   1.399       .  A
C2404      H2413   1.083       .  S
C2405      C2406   1.402       .  A
C2405      H2414   1.083       .  S
C2406      C2409   1.441       .  S
C2406      C2407   1.402       .  A
C2407      C2408   1.400       .  A
C2407      H2415   1.083       .  S
C2408      H2416   1.083       .  S
C2409      C2410   1.207       .  T
C2411      C2412   1.207       .  T
C2417      C2425   1.443       .  S
C2417      C2418   1.402       .  A
C2417      C2422   1.401       .  A
C2418      C2419   1.401       .  A
C2418      H2427   1.083       .  S
C2419      C2420   1.402       .  A
C2419      H2428   1.083       .  S
C2420      C2423   1.443       .  S
C2420      C2421   1.402       .  A
C2421      C2422   1.400       .  A
C2421      H2429   1.083       .  S
C2422      H2430   1.083       .  S
C2423      C2424   1.208       .  T
C2425      C2426   1.207       .  T
C2431      C2439   1.443       .  S
C2431      C2432   1.402       .  A
C2431      C2436   1.402       .  A
C2432      C2433   1.401       .  A
C2432      H2441   1.083       .  S
C2433      C2434   1.402       .  A
C2433      H2442   1.083       .  S
C2434      C2437   1.442       .  S
C2434      C2435   1.401   1_565  A
C2435      C2436   1.400   1_545  A
C2435      H2443   1.083       .  S
C2436      H2444   1.083   1_565  S
C2437      C2438   1.207       .  T
C2439      C2440   1.208       .  T
C2445      C2453   1.442       .  S
C2445      C2446   1.402       .  A
C2445      C2450   1.402       .  A
C2446      C2447   1.401       .  A
C2446      H2455   1.083       .  S
C2447      C2448   1.402       .  A
C2447      H2456   1.083       .  S
C2448      C2451   1.442       .  S
C2448      C2449   1.401       .  A
C2449      C2450   1.399       .  A
C2449      H2457   1.083       .  S
C2450      H2458   1.083       .  S
C2451      C2452   1.207       .  T
C2453      C2454   1.207       .  T
C2459      C2467   1.443       .  S
C2459      C2460   1.402       .  A
C2459      C2464   1.402       .  A
C2460      C2461   1.401       .  A
C2460      H2469   1.083       .  S
C2461      C2462   1.402       .  A
C2461      H2470   1.083       .  S
C2462      C2465   1.442       .  S
C2462      C2463   1.402       .  A
C2463      C2464   1.399       .  A
C2463      H2471   1.084       .  S
C2464      H2472   1.083       .  S
C2465      C2466   1.208       .  T
C2467      C2468   1.208       .  T
C2473      C2481   1.443       .  S
C2473      C2474   1.402       .  A
C2473      C2478   1.402       .  A
C2474      C2475   1.401       .  A
C2474      H2483   1.083       .  S
C2475      C2476   1.402       .  A
C2475      H2484   1.083       .  S
C2476      C2479   1.443       .  S
C2476      C2477   1.401       .  A
C2477      C2478   1.400       .  A
C2477      H2485   1.083       .  S
C2478      H2486   1.083       .  S
C2479      C2480   1.208       .  T
C2481      C2482   1.208       .  T
C2487      C2495   1.443       .  S
C2487      C2488   1.401       .  A
C2487      C2492   1.402       .  A
C2488      C2489   1.399       .  A
C2488      H2497   1.084       .  S
C2489      C2490   1.401       .  A
C2489      H2498   1.084       .  S
C2490      C2493   1.443       .  S
C2490      C2491   1.402       .  A
C2491      C2492   1.402       .  A
C2491      H2499   1.083       .  S
C2492      H2500   1.083       .  S
C2493      C2494   1.208       .  T
C2495      C2496   1.208       .  T
C2501      C2509   1.444       .  S
C2501      C2502   1.402       .  A
C2501      C2506   1.402       .  A
C2502      C2503   1.400       .  A
C2502      H2511   1.083       .  S
C2503      C2504   1.402       .  A
C2503      H2512   1.083       .  S
C2504      C2507   1.443       .  S
C2504      C2505   1.402       .  A
C2505      C2506   1.401       .  A
C2505      H2513   1.083       .  S
C2506      H2514   1.083       .  S
C2507      C2508   1.208       .  T
C2509      C2510   1.208       .  T
C2515      C2523   1.441       .  S
C2515      C2516   1.402       .  A
C2515      C2520   1.401       .  A
C2516      C2517   1.400       .  A
C2516      H2525   1.083       .  S
C2517      C2518   1.402       .  A
C2517      H2526   1.083       .  S
C2518      C2521   1.441       .  S
C2518      C2519   1.401       .  A
C2519      C2520   1.399       .  A
C2519      H2527   1.083       .  S
C2520      H2528   1.083       .  S
C2521      C2522   1.207       .  T
C2523      C2524   1.207       .  T
C2529      C2537   1.439       .  S
C2529      C2530   1.401       .  A
C2529      C2534   1.402       .  A
C2530      C2531   1.398       .  A
C2530      H2539   1.083       .  S
C2531      C2532   1.401       .  A
C2531      H2540   1.083       .  S
C2532      C2535   1.439       .  S
C2532      C2533   1.402       .  A
C2533      C2534   1.399       .  A
C2533      H2541   1.083       .  S
C2534      H2542   1.083       .  S
C2535      C2536   1.205       .  T
C2537      C2538   1.205       .  T
C2543      C2551   1.442       .  S
C2543      C2544   1.402       .  A
C2543      C2548   1.401       .  A
C2544      C2545   1.400       .  A
C2544      H2553   1.083       .  S
C2545      C2546   1.402       .  A
C2545      H2554   1.083       .  S
C2546      C2549   1.443       .  S
C2546      C2547   1.402       .  A
C2547      C2548   1.400       .  A
C2547      H2555   1.083       .  S
C2548      H2556   1.083       .  S
C2549      C2550   1.208       .  T
C2551      C2552   1.207       .  T
C2557      C2565   1.441       .  S
C2557      C2558   1.402       .  A
C2557      C2562   1.401       .  A
C2558      C2559   1.400       .  A
C2558      H2567   1.083       .  S
C2559      C2560   1.401       .  A
C2559      H2568   1.083       .  S
C2560      C2563   1.441       .  S
C2560      C2561   1.402       .  A
C2561      C2562   1.399       .  A
C2561      H2569   1.083       .  S
C2562      H2570   1.083       .  S
C2563      C2564   1.206       .  T
C2565      C2566   1.206       .  T
C2571      C2579   1.440       .  S
C2571      C2572   1.402       .  A
C2571      C2576   1.400       .  A
C2572      C2573   1.401       .  A
C2572      H2581   1.083       .  S
C2573      C2574   1.402       .  A
C2573      H2582   1.083       .  S
C2574      C2577   1.441       .  S
C2574      C2575   1.401       .  A
C2575      C2576   1.397       .  A
C2575      H2583   1.084       .  S
C2576      H2584   1.084       .  S
C2577      C2578   1.206       .  T
C2579      C2580   1.206       .  T
C2585      C2593   1.444       .  S
C2585      C2586   1.403       .  A
C2585      C2590   1.401       .  A
C2586      C2587   1.402       .  A
C2586      H2595   1.083       .  S
C2587      C2588   1.402       .  A
C2587      H2596   1.083       .  S
C2588      C2591   1.443       .  S
C2588      C2589   1.402       .  A
C2589      C2590   1.399       .  A
C2589      H2597   1.084       .  S
C2590      H2598   1.083       .  S
C2591      C2592   1.208       .  T
C2593      C2594   1.208       .  T
C2599      C2607   1.441       .  S
C2599      C2600   1.401       .  A
C2599      C2604   1.402       .  A
C2600      C2601   1.399       .  A
C2600      H2609   1.083       .  S
C2601      C2602   1.401       .  A
C2601      H2610   1.083       .  S
C2602      C2605   1.441       .  S
C2602      C2603   1.402       .  A
C2603      C2604   1.400       .  A
C2603      H2611   1.083       .  S
C2604      H2612   1.083       .  S
C2605      C2606   1.207       .  T
C2607      C2608   1.207       .  T
C2613      C2621   1.441       .  S
C2613      C2614   1.402       .  A
C2613      C2618   1.401       .  A
C2614      C2615   1.399       .  A
C2614      H2623   1.083       .  S
C2615      C2616   1.401       .  A
C2615      H2624   1.083       .  S
C2616      C2619   1.441       .  S
C2616      C2617   1.402       .  A
C2617      C2618   1.400       .  A
C2617      H2625   1.083       .  S
C2618      H2626   1.083       .  S
C2619      C2620   1.207       .  T
C2621      C2622   1.207       .  T
C2627      C2635   1.440       .  S
C2627      C2628   1.402       .  A
C2627      C2632   1.401       .  A
C2628      C2629   1.400       .  A
C2628      H2637   1.083       .  S
C2629      C2630   1.402       .  A
C2629      H2638   1.083       .  S
C2630      C2633   1.441       .  S
C2630      C2631   1.401       .  A
C2631      C2632   1.399       .  A
C2631      H2639   1.083       .  S
C2632      H2640   1.083       .  S
C2633      C2634   1.206       .  T
C2635      C2636   1.206       .  T
C2641      C2649   1.440       .  S
C2641      C2642   1.402       .  A
C2641      C2646   1.401       .  A
C2642      C2643   1.400       .  A
C2642      H2651   1.083       .  S
C2643      C2644   1.402       .  A
C2643      H2652   1.083       .  S
C2644      C2647   1.440       .  S
C2644      C2645   1.401       .  A
C2645      C2646   1.398       .  A
C2645      H2653   1.084       .  S
C2646      H2654   1.084       .  S
C2647      C2648   1.206       .  T
C2649      C2650   1.206       .  T
C2655      C2663   1.438       .  S
C2655      C2656   1.401       .  A
C2655      C2660   1.401       .  A
C2656      C2657   1.399       .  A
C2656      H2665   1.083       .  S
C2657      C2658   1.401       .  A
C2657      H2666   1.083       .  S
C2658      C2661   1.439       .  S
C2658      C2659   1.401       .  A
C2659      C2660   1.399       .  A
C2659      H2667   1.083       .  S
C2660      H2668   1.083       .  S
C2661      C2662   1.205       .  T
C2663      C2664   1.205       .  T
C2669      C2677   1.441       .  S
C2669      C2670   1.401       .  A
C2669      C2674   1.402   1_455  A
C2670      C2671   1.399       .  A
C2670      H2679   1.083       .  S
C2671      C2672   1.401   1_455  A
C2671      H2680   1.083       .  S
C2672      C2675   1.441       .  S
C2672      C2673   1.402       .  A
C2673      C2674   1.400       .  A
C2673      H2681   1.083       .  S
C2674      H2682   1.083       .  S
C2675      C2676   1.206       .  T
C2677      C2678   1.207       .  T
C2683      C2691   1.438       .  S
C2683      C2684   1.401       .  A
C2683      C2688   1.401       .  A
C2684      C2685   1.399       .  A
C2684      H2693   1.083       .  S
C2685      C2686   1.401       .  A
C2685      H2694   1.083       .  S
C2686      C2689   1.438       .  S
C2686      C2687   1.401       .  A
C2687      C2688   1.398       .  A
C2687      H2695   1.083       .  S
C2688      H2696   1.083       .  S
C2689      C2690   1.205       .  T
C2691      C2692   1.205       .  T
C2697      C2705   1.444       .  S
C2697      C2698   1.402       .  A
C2697      C2702   1.402       .  A
C2698      C2699   1.400       .  A
C2698      H2707   1.083       .  S
C2699      C2700   1.402       .  A
C2699      H2708   1.083       .  S
C2700      C2703   1.444       .  S
C2700      C2701   1.402       .  A
C2701      C2702   1.401       .  A
C2701      H2709   1.083       .  S
C2702      H2710   1.083       .  S
C2703      C2704   1.208       .  T
C2705      C2706   1.208       .  T
C2711      C2719   1.441       .  S
C2711      C2712   1.401       .  A
C2711      C2716   1.402       .  A
C2712      C2713   1.399       .  A
C2712      H2721   1.083       .  S
C2713      C2714   1.401       .  A
C2713      H2722   1.083       .  S
C2714      C2717   1.441       .  S
C2714      C2715   1.402       .  A
C2715      C2716   1.400       .  A
C2715      H2723   1.083       .  S
C2716      H2724   1.083       .  S
C2717      C2718   1.207       .  T
C2719      C2720   1.207       .  T
C2725      C2733   1.441       .  S
C2725      C2726   1.401       .  A
C2725      C2730   1.402       .  A
C2726      C2727   1.400       .  A
C2726      H2735   1.083       .  S
C2727      C2728   1.402       .  A
C2727      H2736   1.083       .  S
C2728      C2731   1.441       .  S
C2728      C2729   1.401       .  A
C2729      C2730   1.399       .  A
C2729      H2737   1.083       .  S
C2730      H2738   1.083       .  S
C2731      C2732   1.206       .  T
C2733      C2734   1.207       .  T
C2739      C2747   1.440       .  S
C2739      C2740   1.402       .  A
C2739      C2744   1.401       .  A
C2740      C2741   1.400       .  A
C2740      H2749   1.083       .  S
C2741      C2742   1.401       .  A
C2741      H2750   1.083       .  S
C2742      C2745   1.439       .  S
C2742      C2743   1.401       .  A
C2743      C2744   1.398       .  A
C2743      H2751   1.084       .  S
C2744      H2752   1.083       .  S
C2745      C2746   1.206       .  T
C2747      C2748   1.206       .  T
C2753      C2761   1.443       .  S
C2753      C2754   1.403       .  A
C2753      C2758   1.401       .  A
C2754      C2755   1.402       .  A
C2754      H2763   1.083       .  S
C2755      C2756   1.403       .  A
C2755      H2764   1.083       .  S
C2756      C2759   1.442       .  S
C2756      C2757   1.401       .  A
C2757      C2758   1.398       .  A
C2757      H2765   1.084       .  S
C2758      H2766   1.084       .  S
C2759      C2760   1.207       .  T
C2761      C2762   1.208       .  T
C2767      C2775   1.445       .  S
C2767      C2768   1.402   1_556  A
C2767      C2772   1.402       .  A
C2768      C2769   1.402       .  A
C2768      H2777   1.083       .  S
C2769      C2770   1.402   1_554  A
C2769      H2778   1.083       .  S
C2770      C2773   1.446       .  S
C2770      C2771   1.402       .  A
C2771      C2772   1.401       .  A
C2771      H2779   1.083       .  S
C2772      H2780   1.083       .  S
C2773      C2774   1.209       .  T
C2775      C2776   1.209       .  T
C2781      C2789   1.439       .  S
C2781      C2782   1.402       .  A
C2781      C2786   1.401       .  A
C2782      C2783   1.400       .  A
C2782      H2791   1.083       .  S
C2783      C2784   1.401       .  A
C2783      H2792   1.083       .  S
C2784      C2787   1.439       .  S
C2784      C2785   1.401       .  A
C2785      C2786   1.398       .  A
C2785      H2793   1.084       .  S
C2786      H2794   1.084       .  S
C2787      C2788   1.205       .  T
C2789      C2790   1.206       .  T
C2795      C2803   1.438       .  S
C2795      C2796   1.402       .  A
C2795      C2800   1.400       .  A
C2796      C2797   1.399       .  A
C2796      H2805   1.083       .  S
C2797      C2798   1.401       .  A
C2797      H2806   1.083       .  S
C2798      C2801   1.438       .  S
C2798      C2799   1.401       .  A
C2799      C2800   1.397       .  A
C2799      H2807   1.084       .  S
C2800      H2808   1.084       .  S
C2801      C2802   1.205       .  T
C2803      C2804   1.205       .  T
C2809      C2817   1.439       .  S
C2809      C2810   1.401       .  A
C2809      C2814   1.401       .  A
C2810      C2811   1.398       .  A
C2810      H2819   1.084       .  S
C2811      C2812   1.401       .  A
C2811      H2820   1.084       .  S
C2812      C2815   1.439       .  S
C2812      C2813   1.401       .  A
C2813      C2814   1.400       .  A
C2813      H2821   1.083       .  S
C2814      H2822   1.083       .  S
C2815      C2816   1.206       .  T
C2817      C2818   1.206       .  T
C2823      C2831   1.443       .  S
C2823      C2824   1.402       .  A
C2823      C2828   1.402       .  A
C2824      C2825   1.401       .  A
C2824      H2833   1.083       .  S
C2825      C2826   1.402       .  A
C2825      H2834   1.083       .  S
C2826      C2829   1.444       .  S
C2826      C2827   1.402       .  A
C2827      C2828   1.400       .  A
C2827      H2835   1.083       .  S
C2828      H2836   1.083       .  S
C2829      C2830   1.208       .  T
C2831      C2832   1.208       .  T
C2837      C2845   1.443       .  S
C2837      C2838   1.402       .  A
C2837      C2842   1.402       .  A
C2838      C2839   1.400       .  A
C2838      H2847   1.083       .  S
C2839      C2840   1.402       .  A
C2839      H2848   1.083       .  S
C2840      C2843   1.443       .  S
C2840      C2841   1.402       .  A
C2841      C2842   1.400       .  A
C2841      H2849   1.083       .  S
C2842      H2850   1.083       .  S
C2843      C2844   1.208       .  T
C2845      C2846   1.208       .  T
C2851      C2859   1.440       .  S
C2851      C2852   1.402       .  A
C2851      C2856   1.401       .  A
C2852      C2853   1.400       .  A
C2852      H2861   1.083       .  S
C2853      C2854   1.402       .  A
C2853      H2862   1.083       .  S
C2854      C2857   1.441       .  S
C2854      C2855   1.401       .  A
C2855      C2856   1.399       .  A
C2855      H2863   1.083       .  S
C2856      H2864   1.083       .  S
C2857      C2858   1.207       .  T
C2859      C2860   1.206       .  T
C2865      C2873   1.441       .  S
C2865      C2866   1.402       .  A
C2865      C2870   1.401       .  A
C2866      C2867   1.400       .  A
C2866      H2875   1.083       .  S
C2867      C2868   1.402       .  A
C2867      H2876   1.083       .  S
C2868      C2871   1.441       .  S
C2868      C2869   1.401       .  A
C2869      C2870   1.398       .  A
C2869      H2877   1.084       .  S
C2870      H2878   1.084       .  S
C2871      C2872   1.206       .  T
C2873      C2874   1.206       .  T
C2879      C2887   1.444       .  S
C2879      C2880   1.402   1_455  A
C2879      C2884   1.402       .  A
C2880      C2881   1.402       .  A
C2880      H2889   1.083       .  S
C2881      C2882   1.403   1_655  A
C2881      H2890   1.083       .  S
C2882      C2885   1.443       .  S
C2882      C2883   1.401       .  A
C2883      C2884   1.400       .  A
C2883      H2891   1.083       .  S
C2884      H2892   1.083       .  S
C2885      C2886   1.208       .  T
C2887      C2888   1.208       .  T
C2893      C2901   1.444       .  S
C2893      C2894   1.402       .  A
C2893      C2898   1.402       .  A
C2894      C2895   1.399       .  A
C2894      H2903   1.084   1_554  S
C2895      C2896   1.401       .  A
C2895      H2904   1.084       .  S
C2896      C2899   1.444       .  S
C2896      C2897   1.403       .  A
C2897      C2898   1.402       .  A
C2897      H2905   1.083       .  S
C2898      H2906   1.083       .  S
C2899      C2900   1.208       .  T
C2901      C2902   1.208       .  T
C2907      C2915   1.443       .  S
C2907      C2908   1.403       .  A
C2907      C2912   1.401       .  A
C2908      C2909   1.403       .  A
C2908      H2917   1.083       .  S
C2909      C2910   1.403       .  A
C2909      H2918   1.083       .  S
C2910      C2913   1.444       .  S
C2910      C2911   1.401       .  A
C2911      C2912   1.398       .  A
C2911      H2919   1.084       .  S
C2912      H2920   1.084       .  S
C2913      C2914   1.208       .  T
C2915      C2916   1.208       .  T
C2921      C2929   1.442       .  S
C2921      C2922   1.402       .  A
C2921      C2926   1.402       .  A
C2922      C2923   1.400       .  A
C2922      H2931   1.083       .  S
C2923      C2924   1.402       .  A
C2923      H2932   1.083       .  S
C2924      C2927   1.442       .  S
C2924      C2925   1.402       .  A
C2925      C2926   1.400       .  A
C2925      H2933   1.083       .  S
C2926      H2934   1.083       .  S
C2927      C2928   1.207       .  T
C2929      C2930   1.207       .  T
C2935      C2943   1.443       .  S
C2935      C2936   1.402       .  A
C2935      C2940   1.402       .  A
C2936      C2937   1.400       .  A
C2936      H2945   1.083       .  S
C2937      C2938   1.402       .  A
C2937      H2946   1.083       .  S
C2938      C2941   1.443       .  S
C2938      C2939   1.402       .  A
C2939      C2940   1.401       .  A
C2939      H2947   1.083       .  S
C2940      H2948   1.083       .  S
C2941      C2942   1.208       .  T
C2943      C2944   1.208       .  T
C2949      C2957   1.444       .  S
C2949      C2950   1.402       .  A
C2949      C2954   1.402       .  A
C2950      C2951   1.401       .  A
C2950      H2959   1.083   1_554  S
C2951      C2952   1.402       .  A
C2951      H2960   1.083   1_554  S
C2952      C2955   1.443       .  S
C2952      C2953   1.402       .  A
C2953      C2954   1.400       .  A
C2953      H2961   1.083       .  S
C2954      H2962   1.083       .  S
C2955      C2956   1.208       .  T
C2957      C2958   1.208       .  T
C2963      C2971   1.440       .  S
C2963      C2964   1.401       .  A
C2963      C2968   1.401       .  A
C2964      C2965   1.399       .  A
C2964      H2973   1.083       .  S
C2965      C2966   1.401       .  A
C2965      H2974   1.083       .  S
C2966      C2969   1.440       .  S
C2966      C2967   1.401       .  A
C2967      C2968   1.399       .  A
C2967      H2975   1.083       .  S
C2968      H2976   1.083       .  S
C2969      C2970   1.206       .  T
C2971      C2972   1.206       .  T
