geometry optimzed in LAMMPS
_audit_creation_date              2020-11-30 
_audit_creation_method            'lammps2cif' 
_symmetry_space_group_name_H-M    'P1' 
_symmetry_Int_Tables_number       1 
_symmetry_cell_setting            triclinic 
loop_ 
_symmetry_equiv_pos_as_xyz 
  x,y,z 
_cell_length_a                    38.6436324 
_cell_length_b                    39.240814916512896 
_cell_length_c                    39.26491029844964 
_cell_angle_alpha                 90.01031335286945 
_cell_angle_beta                  92.8193564850106 
_cell_angle_gamma                 88.52136692093207 
loop_ 
_atom_site_label 
_atom_site_type_symbol 
_atom_site_fract_x 
_atom_site_fract_y 
_atom_site_fract_z 
_atom_site_charge 
O1          O  0.55781085  0.61144873  0.68876007    -0.81400
O2          O  0.62973723  0.71246024  0.62176255    -0.66100
O3          O  0.59141688  0.62664404  0.63437484    -1.12700
C4          C  0.69803071  0.60517080  0.69330231     1.05500
O5          O  0.67165960  0.68315239  0.59836593    -0.79300
O6          O  0.68258977  0.61264583  0.60564262    -0.66800
Ni7        Ni  0.54423885  0.62633581  0.64421076     1.34900
C8          C  0.66959010  0.58416340  0.61304736     0.84300
O9          O  0.56950082  0.68545316  0.59843848    -0.79800
O10         O  0.53265372  0.64226010  0.59872459    -0.90100
C11         C  0.65685977  0.71176176  0.60506616     0.83800
O12         O  0.53763035  0.67083446  0.66322986    -0.68300
O13         O  0.70881266  0.62373320  0.66948685    -0.87600
C14         C  0.56087065  0.68545070  0.68127511     0.84700
C15         C  0.54595153  0.66736169  0.58370057     1.06200
H16         H  0.65033203  0.66684144  0.67531736     0.38000
O17         O  0.64716408  0.65312203  0.65530415    -1.10200
O18         O  0.64723833  0.58143662  0.63555329    -0.66900
Ni19       Ni  0.62671505  0.61201386  0.66797100     1.26300
O20         O  0.59101818  0.68779374  0.67024295    -0.67100
O21         O  0.66589974  0.59977950  0.69853115    -0.79400
C22         C  0.56957101  0.58138414  0.69181293     0.84000
O23         O  0.60006137  0.57393540  0.68249572    -0.66600
Ni24       Ni  0.68936779  0.65240067  0.63393075     1.27400
Ni25       Ni  0.60874409  0.67022177  0.62790874     1.26100
H26         H  0.59419605  0.61368270  0.61366990     0.38600
O27         O  0.79901905  0.56451042  0.36721175    -0.81400
O28         O  0.85949398  0.65923396  0.27440761    -0.66100
O29         O  0.85133684  0.60605281  0.35345966    -1.12700
C30         C  0.79873743  0.70512111  0.39526280     1.05500
O31         O  0.88489791  0.69903277  0.30546270    -0.79300
O32         O  0.88791952  0.68630794  0.37811295    -0.66800
Ni33       Ni  0.84281868  0.55916202  0.34730701     1.34900
C34         C  0.88093816  0.66993674  0.40514017     0.84300
O35         O  0.88539938  0.59758288  0.29169815    -0.79800
O36         O  0.88751886  0.55374851  0.32807613    -0.90100
C37         C  0.87725452  0.68574640  0.27613271     0.83800
O38         O  0.81862725  0.56022887  0.30326922    -0.68300
O39         O  0.82397559  0.71707653  0.37950367    -0.87600
C40         C  0.80163784  0.58540999  0.29008882     0.84700
C41         C  0.90130691  0.57167513  0.30543099     1.06200
H42         H  0.80866890  0.67090701  0.32283868     0.38000
O43         O  0.82975695  0.66507164  0.33602809    -1.10200
O44         O  0.85454567  0.65138398  0.40630710    -0.66900
Ni45       Ni  0.81872926  0.63710437  0.37379338     1.26300
O46         O  0.81264934  0.61553483  0.29281873    -0.67100
O47         O  0.78981815  0.67350313  0.39303714    -0.79400
C48         C  0.79757777  0.57296210  0.39826533     0.84000
O49         O  0.80614064  0.60322451  0.40763554    -0.66600
Ni50       Ni  0.85442158  0.70541617  0.34402097     1.27400
Ni51       Ni  0.85601512  0.63141997  0.31320394     1.26100
H52         H  0.87316743  0.60708925  0.36646734     0.38600
O53         O  0.80660159  0.40706114  0.14305315    -0.81400
O54         O  0.87329979  0.30964383  0.24085743    -0.66100
O55         O  0.86004521  0.36323539  0.16078582    -1.12700
C56         C  0.80538851  0.26525330  0.11935715     1.05500
O57         O  0.89899268  0.27124313  0.20905837    -0.79300
O58         O  0.89449723  0.27741345  0.13727638    -0.66800
Ni59       Ni  0.85091141  0.41045402  0.16571030     1.34900
C60         C  0.88727841  0.29495528  0.11028699     0.84300
O61         O  0.89592331  0.37127745  0.22498567    -0.79800
O62         O  0.89595930  0.41446012  0.18792522    -0.90100
C63         C  0.89288583  0.28339115  0.23853838     0.83800
O64         O  0.82766848  0.41036716  0.20795259    -0.68300
O65         O  0.83034240  0.25150526  0.13748535    -0.87600
C66         C  0.81088085  0.38588541  0.21952468     0.84700
C67         C  0.91065673  0.39667237  0.21199158     1.06200
H68         H  0.81978656  0.30043480  0.18947784     0.38000
O69         O  0.84040379  0.30517385  0.17751732    -1.10200
O70         O  0.86229975  0.31686199  0.10822226    -0.66900
Ni71       Ni  0.82741133  0.33300044  0.13881536     1.26300
O72         O  0.82319013  0.35545965  0.21918488    -0.67100
O73         O  0.79803936  0.29766791  0.11869921    -0.79400
C74         C  0.80261041  0.39712481  0.11249197     0.84000
O75         O  0.81222788  0.36675591  0.10394432    -0.66600
Ni76       Ni  0.86428080  0.26329856  0.17213619     1.27400
Ni77       Ni  0.86672201  0.33807404  0.20180893     1.26100
H78         H  0.88142556  0.36125738  0.14913080     0.38600
C79         C  0.72666120  0.56379966  0.00702406     0.02700
C80         C  0.74075945  0.54392360  0.03508871    -0.13500
C81         C  0.73958984  0.50786869  0.03459153     0.00200
C82         C  0.72436411  0.49146441  0.00672419    -0.12000
C83         C  0.71278586  0.50896489  0.97757783     0.02600
C84         C  0.71330834  0.54536789  0.97763115    -0.11400
H85         H  0.75340466  0.55616050  0.05684773     0.08200
H86         H  0.72408351  0.46375907  0.00667601     0.05800
H87         H  0.70362675  0.55892629  0.95501047     0.05600
C88         C  0.03276365  0.51612999  0.27284194     0.02700
C89         C  0.06925150  0.51855288  0.27154174    -0.13500
C90         C  0.08973541  0.48978541  0.26155463     0.00200
C91         C  0.07257135  0.45915176  0.25258194    -0.12000
C92         C  0.03610345  0.45763412  0.25292860     0.02600
C93         C  0.01715288  0.48598131  0.26315328    -0.11400
H94         H  0.08156969  0.54207473  0.27895547     0.08200
H95         H  0.08738015  0.43704853  0.24449455     0.05800
H96         H  0.98909940  0.48458835  0.26343129     0.05600
O97         O  0.57757358  0.34799005  0.80941152    -0.81400
O98         O  0.67865841  0.25976072  0.87098764    -0.66100
O99         O  0.61862747  0.33570004  0.86423236    -1.12700
C100        C  0.71209541  0.38493915  0.81452200     1.05500
O101        O  0.71752692  0.29108691  0.89880840    -0.79300
O102        O  0.70572317  0.36375768  0.90001618    -0.66800
Ni103      Ni  0.57192709  0.32719969  0.85198035     1.34900
C104        C  0.68512019  0.38958784  0.89481731     0.84300
O105        O  0.61537981  0.27188826  0.89535187    -0.79800
O106        O  0.56817825  0.30649531  0.89544522    -0.90100
C107        C  0.70450534  0.26193954  0.89164318     0.83800
O108        O  0.57520355  0.28372937  0.82966291    -0.68300
O109        O  0.72902135  0.36661340  0.83689056    -0.87600
C110        C  0.60048680  0.27430623  0.81236762     0.84700
C111        C  0.58864113  0.28418972  0.90980980     1.06200
H112        H  0.68358943  0.31202467  0.82270923     0.38000
O113        O  0.67851052  0.32304234  0.84398077    -1.10200
O114        O  0.66148187  0.39033712  0.87090736    -0.66900
Ni115      Ni  0.64682244  0.35998673  0.83414028     1.26300
O116        O  0.63130160  0.27898613  0.82366960    -0.67100
O117        O  0.67935368  0.38311278  0.80708126    -0.79400
C118        C  0.58105550  0.37983998  0.80938073     0.84000
O119        O  0.60945170  0.39236859  0.82140021    -0.66600
Ni120      Ni  0.72132210  0.33001870  0.86757492     1.27400
Ni121      Ni  0.64736395  0.29675014  0.86793095     1.26100
H122        H  0.61926369  0.34699468  0.88608888     0.38600
O123        O  0.40764448  0.13916862  0.80193609    -0.81400
O124        O  0.31538259  0.23496660  0.86163980    -0.66100
O125        O  0.36895211  0.15466947  0.85362443    -1.12700
C126        C  0.26687287  0.11429142  0.80073997     1.05500
O127        O  0.27813441  0.20386499  0.88826168    -0.79300
O128        O  0.28395487  0.13161865  0.88678044    -0.66800
Ni129      Ni  0.41615061  0.15922686  0.84536658     1.34900
C130        C  0.30218756  0.10471880  0.88098819     0.84300
O131        O  0.37912042  0.21757006  0.88616152    -0.79800
O132        O  0.42276494  0.17903254  0.88999043    -0.90100
C133        C  0.29100553  0.23283192  0.88176449     0.83800
O134        O  0.41533821  0.20297953  0.82322113    -0.68300
O135        O  0.25391804  0.13339394  0.82343463    -0.87600
C136        C  0.39008905  0.21529119  0.80497961     0.84700
C137        C  0.40441079  0.20278365  0.90307557     1.06200
H138        H  0.30277331  0.18453087  0.81107715     0.38000
O139        O  0.30880692  0.17236771  0.83203794    -1.10200
O140        O  0.32310031  0.10302643  0.85701791    -0.66900
Ni141      Ni  0.33676654  0.13335794  0.82172444     1.26300
O142        O  0.35919848  0.21323724  0.81449142    -0.67100
O143        O  0.29933397  0.11328752  0.79369585    -0.79400
C144        C  0.40104006  0.10781160  0.80156543     0.84000
O145        O  0.37097098  0.09830493  0.80984870    -0.66600
Ni146      Ni  0.26786075  0.16751656  0.85545912     1.27400
Ni147      Ni  0.34370404  0.19569112  0.85758538     1.26100
H148        H  0.36821325  0.14294482  0.87518201     0.38600
C149        C  0.46611927  0.24243138  0.02937690     0.02700
C150        C  0.46582081  0.24246749  0.06534185    -0.13500
C151        C  0.49617850  0.25069255  0.08573238     0.00200
C152        C  0.52715895  0.25663526  0.06859906    -0.12000
C153        C  0.52713392  0.25584983  0.03253872     0.02600
C154        C  0.49655581  0.24943684  0.01384408    -0.11400
H155        H  0.44205982  0.23618724  0.07707076     0.08200
H156        H  0.55077394  0.26280021  0.08298123     0.05800
H157        H  0.49661051  0.24925957  0.98616298     0.05600
C158        C  0.46271450  0.24491345  0.68821977     0.02700
C159        C  0.46243830  0.24672505  0.65201562    -0.13500
C160        C  0.49416926  0.24743499  0.63443403     0.00200
C161        C  0.52592988  0.24604184  0.65489293    -0.12000
C162        C  0.52600322  0.24294335  0.69089181     0.02600
C163        C  0.49446041  0.24277332  0.70646447    -0.11400
H164        H  0.43767555  0.24751827  0.63796369     0.08200
H165        H  0.55055323  0.24770980  0.64313162     0.05800
H166        H  0.49461239  0.24135543  0.73407978     0.05600
C167        C  0.56921066  0.98785912  0.76534744     0.02700
C168        C  0.54856428  0.96311387  0.74798058    -0.13500
C169        C  0.51194383  0.96546542  0.74828103     0.00200
C170        C  0.49626898  0.99092103  0.76683721    -0.12000
C171        C  0.51510918  0.01579718  0.78353755     0.02600
C172        C  0.55165400  0.01475809  0.78271058    -0.11400
H173        H  0.56065342  0.94328428  0.73312899     0.08200
H174        H  0.46810844  0.99289063  0.76618509     0.05800
H175        H  0.56605198  0.03474066  0.79546850     0.05600
C176        C  0.98342681  0.02329105  0.25213284     0.02700
C177        C  0.94644761  0.02197196  0.24939084    -0.13500
C178        C  0.92854112  0.99415635  0.26396312     0.00200
C179        C  0.94917129  0.96843674  0.28158311    -0.12000
C180        C  0.98582653  0.97046254  0.28485590     0.02600
C181        C  0.00184578  0.99714382  0.26909782    -0.11400
H182        H  0.93188101  0.04196015  0.23563816     0.08200
H183        H  0.93680100  0.94721794  0.29319920     0.05800
H184        H  0.02995549  0.99734065  0.26947356     0.05600
C185        C  0.24010265  0.39332232  0.00150198     0.02700
C186        C  0.24992551  0.37508768  0.97227182    -0.13500
C187        C  0.25490853  0.33949617  0.97328481     0.00200
C188        C  0.25011203  0.32153477  0.00316816    -0.12000
C189        C  0.24011120  0.33769238  0.03285855     0.02600
C190        C  0.23552585  0.37410177  0.03211084    -0.11400
H191        H  0.25405997  0.38841508  0.94873730     0.08200
H192        H  0.25315427  0.29396418  0.00275821     0.05800
H193        H  0.22779239  0.38725869  0.05484623     0.05600
C194        C  0.25911701  0.93417809  0.99097166     0.02700
C195        C  0.27120337  0.95204948  0.96225655    -0.13500
C196        C  0.27437941  0.98798806  0.96309282     0.00200
C197        C  0.26659663  0.00560646  0.99251308    -0.12000
C198        C  0.25232851  0.98965116  0.01982710     0.02600
C199        C  0.24908989  0.95386071  0.01953894    -0.11400
H200        H  0.27769972  0.93840626  0.93939760     0.08200
H201        H  0.26902409  0.03313324  0.99303507     0.05800
H202        H  0.23766320  0.94169757  0.04087175     0.05600
C203        C  0.39319386  0.99291762  0.25269700     0.02700
C204        C  0.37174641  0.02346824  0.25040227    -0.13500
C205        C  0.33497462  0.02233457  0.25273273     0.00200
C206        C  0.32002741  0.99061549  0.25587073    -0.12000
C207        C  0.33949484  0.96038271  0.25915902     0.02600
C208        C  0.37613249  0.96147041  0.25781933    -0.11400
H209        H  0.38346918  0.04787244  0.24682174     0.08200
H210        H  0.29205412  0.98944128  0.25673418     0.05800
H211        H  0.39118388  0.93795165  0.26103286     0.05600
C212        C  0.00184617  0.24786557  0.94455133     0.02700
C213        C  0.97136798  0.25764631  0.96171759    -0.13500
C214        C  0.97204886  0.25916612  0.99792825     0.00200
C215        C  0.00288660  0.25151094  0.01644628    -0.12000
C216        C  0.03278587  0.24094006  0.00080349     0.02600
C217        C  0.03232028  0.23887183  0.96487430    -0.11400
H218        H  0.94757601  0.26413090  0.94718868     0.08200
H219        H  0.00327852  0.25267326  0.04410085     0.05800
H220        H  0.05560838  0.23028639  0.95284285     0.05600
C221        C  0.00955869  0.22671256  0.40991743     0.02700
C222        C  0.04112735  0.22041290  0.39343278    -0.13500
C223        C  0.04179374  0.22080898  0.35743212     0.00200
C224        C  0.01135237  0.22816123  0.33815718    -0.12000
C225        C  0.98019294  0.23561338  0.35317631     0.02600
C226        C  0.97912573  0.23460222  0.38914212    -0.11400
H227        H  0.06487098  0.21485506  0.40839216     0.08200
H228        H  0.01217167  0.22891680  0.31055752     0.05800
H229        H  0.95487121  0.24044509  0.40080412     0.05600
O230        O  0.20900752  0.08603474  0.14128279    -0.81400
O231        O  0.14632281  0.16813485  0.24396016    -0.66100
O232        O  0.15502797  0.12384214  0.15984312    -1.12700
C233        C  0.20018631  0.22887240  0.12566380     1.05500
O234        O  0.11775678  0.21049114  0.21699120    -0.79300
O235        O  0.11482236  0.20993925  0.14433128    -0.66800
Ni236      Ni  0.16648535  0.07677151  0.16110365     1.34900
C237        C  0.12047737  0.19545936  0.11583844     0.84300
O238        O  0.12281515  0.10809734  0.22094576    -0.79800
O239        O  0.12265148  0.06793053  0.18076520    -0.90100
C240        C  0.12605804  0.19390597  0.24453785     0.83800
O241        O  0.19237792  0.07296976  0.20424619    -0.68300
O242        O  0.17720598  0.23917029  0.14595010    -0.87600
C243        C  0.20908244  0.09661243  0.21907079     0.84700
C244        C  0.10793742  0.08332751  0.20509326     1.06200
H245        H  0.19550913  0.18509889  0.19495900     0.38000
O246        O  0.17400465  0.18100985  0.18217638    -1.10200
O247        O  0.14589820  0.17471179  0.11203808    -0.66900
Ni248      Ni  0.18445453  0.15769530  0.14095635     1.26300
O249        O  0.19598972  0.12676232  0.22018416    -0.67100
O250        O  0.20961080  0.19686874  0.12311345    -0.79400
C251        C  0.20904563  0.09670146  0.11089472     0.84000
O252        O  0.19771313  0.12723174  0.10377071    -0.66600
Ni253      Ni  0.14809185  0.22258017  0.18023190     1.27400
Ni254      Ni  0.15052234  0.14448693  0.20254064     1.26100
H255        H  0.13258522  0.12575536  0.14794821     0.38600
O256        O  0.25647481  0.89040226  0.66063993    -0.81400
O257        O  0.34622655  0.83367751  0.56204075    -0.66100
O258        O  0.30222533  0.84064617  0.64576644    -1.12700
C259        C  0.39663174  0.90778428  0.67723532     1.05500
O260        O  0.39507722  0.81798591  0.58985860    -0.79300
O261        O  0.39597849  0.81938231  0.66162664    -0.66800
Ni262      Ni  0.25332585  0.84616992  0.64291000     1.34900
C263        C  0.38266100  0.82509348  0.69030240     0.84300
O264        O  0.28992212  0.80410946  0.58524191    -0.79800
O265        O  0.24977822  0.80132700  0.62438125    -0.90100
C266        C  0.37724368  0.82261658  0.56182854     0.83800
O267        O  0.24592992  0.86863030  0.59943941    -0.68300
O268        O  0.41194177  0.88593906  0.65882596    -0.87600
C269        C  0.26816082  0.88697463  0.58605791     0.84700
C270        C  0.26620672  0.78832715  0.60003267     1.06200
H271        H  0.35496115  0.88812158  0.60973215     0.38000
O272        O  0.35526608  0.86737376  0.62301187    -1.10200
O273        O  0.35671129  0.84543460  0.69365062    -0.66900
Ni274      Ni  0.33078394  0.87678118  0.66316649     1.26300
O275        O  0.29922519  0.87625648  0.58503121    -0.67100
O276        O  0.36348166  0.91069723  0.67904883    -0.79400
C277        C  0.26861022  0.89733475  0.69008685     0.84000
O278        O  0.29980104  0.88844427  0.69952060    -0.66600
Ni279      Ni  0.40158693  0.85181665  0.62564455     1.27400
Ni280      Ni  0.32301754  0.83638746  0.60345011     1.26100
H281        H  0.30778263  0.82018073  0.65882155     0.38600
O282        O  0.13340922  0.79073913  0.41526739    -0.81400
O283        O  0.23257962  0.85548754  0.32955650    -0.66100
O284        O  0.14978528  0.84310825  0.37583990    -1.12700
C285        C  0.11040240  0.79789529  0.27227531     1.05500
O286        O  0.20069488  0.88444278  0.29078758    -0.79300
O287        O  0.12764171  0.88468313  0.29759767    -0.66800
Ni288      Ni  0.15355946  0.83365744  0.42291489     1.34900
C289        C  0.09992083  0.87633793  0.31172095     0.84300
O290        O  0.21282431  0.87473924  0.39148394    -0.79800
O291        O  0.17229196  0.87834829  0.42961259    -0.90100
C292        C  0.23057308  0.87626067  0.30468439     0.83800
O293        O  0.19804637  0.81004932  0.42445638    -0.68300
O294        O  0.12702409  0.82377872  0.26308482    -0.87600
C295        C  0.20949688  0.79220578  0.40018310     0.84700
C296        C  0.19537052  0.89218405  0.41242156     1.06200
H297        H  0.18240165  0.80590133  0.31175494     0.38000
O298        O  0.16914784  0.82600361  0.31793187    -1.10200
O299        O  0.09749349  0.84839393  0.32749770    -0.66900
Ni300      Ni  0.12971935  0.81277161  0.34248777     1.26300
O301        O  0.20988937  0.80464464  0.37023246    -0.67100
O302        O  0.11114601  0.78684922  0.30348699    -0.79400
C303        C  0.10210209  0.78941668  0.40445270     0.84000
O304        O  0.09384689  0.79819437  0.37333856    -0.66600
Ni305      Ni  0.16231259  0.85391185  0.27912727     1.27400
Ni306      Ni  0.19192439  0.84912071  0.35434107     1.26100
H307        H  0.13702442  0.86450999  0.37388845     0.38600
C308        C  0.99494581  0.73583496  0.57155162     0.02700
C309        C  0.01891659  0.75386938  0.55205950    -0.13500
C310        C  0.01738454  0.75197708  0.51577222     0.00200
C311        C  0.99224156  0.73245368  0.49947265    -0.12000
C312        C  0.97042157  0.71193152  0.51710112     0.02600
C313        C  0.97083379  0.71450858  0.55326570    -0.11400
H314        H  0.03804804  0.76968188  0.56487037     0.08200
H315        H  0.99068081  0.73211734  0.47178518     0.05800
H316        H  0.95292141  0.69963505  0.56707930     0.05600
C317        C  0.22449043  0.01987478  0.46340994     0.02700
C318        C  0.22355061  0.05588781  0.46454230    -0.13500
C319        C  0.23148017  0.07341836  0.49574217     0.00200
C320        C  0.23940854  0.05334097  0.52571569    -0.12000
C321        C  0.24022571  0.01714080  0.52387118     0.02600
C322        C  0.23290874  0.00152849  0.49287708    -0.11400
H323        H  0.21655125  0.07006144  0.44145829     0.08200
H324        H  0.24562354  0.06560905  0.54985381     0.05800
H325        H  0.23346722  0.97381613  0.49169624     0.05600
C326        C  0.23401316  0.66798738  0.47134473     0.02700
C327        C  0.23796009  0.68394802  0.50282064    -0.13500
C328        C  0.24045833  0.66587285  0.53321463     0.00200
C329        C  0.23628836  0.63050317  0.53323357    -0.12000
C330        C  0.23047061  0.61269371  0.50219770     0.02600
C331        C  0.22952466  0.63195198  0.47087847    -0.11400
H332        H  0.24023011  0.71147877  0.50382575     0.08200
H333        H  0.23880138  0.61689937  0.55725209     0.05800
H334        H  0.22565268  0.61912584  0.44664133     0.05600
C335        C  0.98804951  0.73774875  0.11231188     0.02700
C336        C  0.95787058  0.73025498  0.13028898    -0.13500
C337        C  0.95987258  0.72667721  0.16635461     0.00200
C338        C  0.99207799  0.72841028  0.18379818    -0.12000
C339        C  0.02156249  0.73753079  0.16753341     0.02600
C340        C  0.01948813  0.74241111  0.13189087    -0.11400
H341        H  0.93307478  0.72763109  0.11665149     0.08200
H342        H  0.99357356  0.72555292  0.21131875     0.05800
H343        H  0.04225026  0.75096996  0.11971465     0.05600
C344        C  0.10010665  0.99722817  0.75502500     0.02700
C345        C  0.11883947  0.02618283  0.76717870    -0.13500
C346        C  0.15562322  0.02528564  0.76868985     0.00200
C347        C  0.17304198  0.99620294  0.75834836    -0.12000
C348        C  0.15593083  0.96852939  0.74474041     0.02600
C349        C  0.11943899  0.96881514  0.74266597    -0.11400
H350        H  0.10519400  0.04856443  0.77625197     0.08200
H351        H  0.20123766  0.99576562  0.75912538     0.05800
H352        H  0.10632424  0.94738504  0.73102433     0.05600
C353        C  0.75453680  0.09764901  0.01082369     0.02700
C354        C  0.74440591  0.11447165  0.97983122    -0.13500
C355        C  0.73722893  0.14978797  0.97936343     0.00200
C356        C  0.73903185  0.16826744  0.00954199    -0.12000
C357        C  0.75270757  0.15367805  0.03955334     0.02600
C358        C  0.76018550  0.11815346  0.04053591    -0.11400
H359        H  0.74190735  0.10045051  0.95617160     0.08200
H360        H  0.73402588  0.19564510  0.00863167     0.05800
H361        H  0.77151929  0.10695723  0.06381754     0.05600
C362        C  0.49090146  0.75576174  0.86202172     0.02700
C363        C  0.46311720  0.77295082  0.84335627    -0.13500
C364        C  0.45867789  0.76911708  0.80764257     0.00200
C365        C  0.48182651  0.74813093  0.79088257    -0.12000
C366        C  0.51084108  0.73304835  0.80752106     0.02600
C367        C  0.51557002  0.73654927  0.84347018    -0.11400
H368        H  0.44533449  0.78940710  0.85661950     0.08200
H369        H  0.47832318  0.74519265  0.76340353     0.05800
H370        H  0.53729435  0.72365288  0.85685344     0.05600
C371        C  0.47131513  0.74249847  0.40059071     0.02700
C372        C  0.49057626  0.71917840  0.42223582    -0.13500
C373        C  0.48808250  0.72118585  0.45792166     0.00200
C374        C  0.46813748  0.74720844  0.47163230    -0.12000
C375        C  0.44925540  0.77066893  0.45119168     0.02600
C376        C  0.45002844  0.76792976  0.41541988    -0.11400
H377        H  0.50653486  0.69926576  0.41139523     0.08200
H378        H  0.46679272  0.74886997  0.49915977     0.05800
H379        H  0.43487319  0.78574371  0.39933462     0.05600
C380        C  0.74012039  0.86896854  0.51016151     0.02700
C381        C  0.72411878  0.85293614  0.53726057    -0.13500
C382        C  0.71756080  0.81802576  0.53588194     0.00200
C383        C  0.72535731  0.79902464  0.50718757    -0.12000
C384        C  0.74251372  0.81309731  0.48057457     0.02600
C385        C  0.74966784  0.84844824  0.48182109    -0.11400
H386        H  0.71673501  0.86727202  0.55942112     0.08200
H387        H  0.72025140  0.77194231  0.50688388     0.05800
H388        H  0.76334377  0.85957348  0.46132897     0.05600
C389        C  0.40403039  0.47848387  0.74429958     0.02700
C390        C  0.42233663  0.50349686  0.72700401    -0.13500
C391        C  0.45852159  0.50052032  0.72583713     0.00200
C392        C  0.47626803  0.47335747  0.74152106    -0.12000
C393        C  0.45941176  0.44987861  0.76047935     0.02600
C394        C  0.42314670  0.45196148  0.76195753    -0.11400
H395        H  0.40872377  0.52472658  0.71426990     0.08200
H396        H  0.50436039  0.47163557  0.74069616     0.05800
H397        H  0.41010673  0.43329362  0.77667496     0.05600
C398        C  0.86828630  0.50410784  0.76911988     0.02700
C399        C  0.85003230  0.53221593  0.75342380    -0.13500
C400        C  0.81359232  0.53380409  0.75307060     0.00200
C401        C  0.79590882  0.50892135  0.76950130    -0.12000
C402        C  0.81294294  0.48049996  0.78351271     0.02600
C403        C  0.84923346  0.47766738  0.78330117    -0.11400
H404        H  0.86381960  0.55158336  0.74034616     0.08200
H405        H  0.76774162  0.51032545  0.76882465     0.05800
H406        H  0.86244924  0.45528079  0.79426136     0.05600
C407        C  0.74181595  0.41207640  0.51693804     0.02700
C408        C  0.72622203  0.43104889  0.54344174    -0.13500
C409        C  0.72206851  0.46706164  0.54124466     0.00200
C410        C  0.73483951  0.48396076  0.51351752    -0.12000
C411        C  0.75239949  0.46686762  0.48835912     0.02600
C412        C  0.75530510  0.43073062  0.48951200    -0.11400
H413        H  0.71671337  0.41789574  0.56519631     0.08200
H414        H  0.73198795  0.51154482  0.51203389     0.05800
H415        H  0.76835526  0.41733460  0.46951724     0.05600
C416        C  0.68595845  0.45735582  0.24585953     0.02700
C417        C  0.64921407  0.45560825  0.24567798    -0.13500
C418        C  0.62784308  0.48605277  0.24543008     0.00200
C419        C  0.64465764  0.51800296  0.24580214    -0.12000
C420        C  0.68131577  0.51947979  0.24633616     0.02600
C421        C  0.70076237  0.48922051  0.24505917    -0.11400
H422        H  0.63742185  0.43089061  0.24588362     0.08200
H423        H  0.62934631  0.54144240  0.24646100     0.05800
H424        H  0.72879834  0.49047261  0.24504074     0.05600
O425        O  0.09897688  0.40356875  0.71009267    -0.81400
O426        O  0.19136276  0.30612895  0.61982198    -0.66100
O427        O  0.12409280  0.36925794  0.65383883    -1.12700
C428        C  0.10064980  0.28461194  0.73268096     1.05500
O429        O  0.16409281  0.25866336  0.63547755    -0.79300
O430        O  0.10013080  0.26274709  0.65559735    -0.66800
Ni431      Ni  0.13416144  0.40986006  0.67650228     1.34900
C432        C  0.08813113  0.28471955  0.63383592     0.84300
O433        O  0.17109834  0.37590832  0.60569582    -0.79800
O434        O  0.16690975  0.42026837  0.64282183    -0.90100
C435        C  0.18431887  0.27419404  0.61662720     0.83800
O436        O  0.17024500  0.38933103  0.70563429    -0.68300
O437        O  0.12728175  0.26762593  0.72403476    -0.87600
C438        C  0.19767971  0.37469301  0.69535317     0.84700
C439        C  0.17405128  0.40795289  0.61370670     1.06200
H440        H  0.16237169  0.31808489  0.69652525     0.38000
O441        O  0.14763471  0.31262212  0.67683386    -1.10200
O442        O  0.08643604  0.31606116  0.64169953    -0.66900
Ni443      Ni  0.10534657  0.33702046  0.68225713     1.26300
O444        O  0.19764406  0.35773697  0.66765377    -0.67100
O445        O  0.08522396  0.30500592  0.71173473    -0.79400
C446        C  0.06902248  0.39078018  0.70426335     0.84000
O447        O  0.06533728  0.36447188  0.68600384    -0.66600
Ni448      Ni  0.14515893  0.26464103  0.67880494     1.27400
Ni449      Ni  0.16017221  0.34069272  0.63880855     1.26100
H450        H  0.10809513  0.37457856  0.63479772     0.38600
O451        O  0.69859177  0.10713488  0.42479926    -0.81400
O452        O  0.61161916  0.21084249  0.32895606    -0.66100
O453        O  0.64017333  0.13810877  0.39042140    -1.12700
C454        C  0.70977795  0.10128364  0.29954161     1.05500
O455        O  0.60918139  0.17232118  0.28711110    -0.79300
O456        O  0.62845830  0.10793270  0.28429173    -0.66800
Ni457      Ni  0.66400580  0.14336654  0.43296889     1.34900
C458        C  0.61185158  0.09473460  0.30792684     0.84300
O459        O  0.59635915  0.19343142  0.39765332    -0.79800
O460        O  0.62947603  0.17686393  0.44482258    -0.90100
C461        C  0.60249756  0.20191756  0.29825823     0.83800
O462        O  0.69418075  0.17910463  0.42010148    -0.68300
O463        O  0.69777624  0.12691792  0.28234609    -0.87600
C464        C  0.68514638  0.20698134  0.40500778     0.84700
C465        C  0.60292350  0.19212548  0.43047450     1.06200
H466        H  0.68253418  0.16815349  0.33665031     0.38000
O467        O  0.66116268  0.15602492  0.33336910    -1.10200
O468        O  0.62293395  0.09710838  0.33887652    -0.66900
Ni469      Ni  0.66630284  0.11479666  0.35799940     1.26300
O470        O  0.66033633  0.20860823  0.38226202    -0.67100
O471        O  0.69507856  0.09100556  0.32595251    -0.79400
C472        C  0.69175068  0.07819084  0.41112715     0.84000
O473        O  0.67083267  0.07620779  0.38562417    -0.66600
Ni474      Ni  0.65323667  0.15007011  0.28566550     1.27400
Ni475      Ni  0.62729525  0.17633464  0.36285154     1.26100
H476        H  0.61951227  0.12565418  0.39443323     0.38600
C477        C  0.49451027  0.25060501  0.59535647     0.02700
C478        C  0.46584005  0.26555021  0.57566540    -0.13500
C479        C  0.46759475  0.27041794  0.53998850     0.00200
C480        C  0.49778599  0.26148778  0.52417867    -0.12000
C481        C  0.52472457  0.24373399  0.54118357     0.02600
C482        C  0.52341496  0.23821685  0.57687595    -0.11400
H483        H  0.44237119  0.27350215  0.58762038     0.08200
H484        H  0.49880947  0.26526898  0.49680949     0.05800
H485        H  0.54449681  0.22399378  0.58981987     0.05600
O486        O  0.39214261  0.28413340  0.31499199    -0.81400
O487        O  0.31656649  0.37514012  0.42479721    -0.66100
O488        O  0.33933116  0.31971230  0.34832689    -1.12700
C489        C  0.41929876  0.40703322  0.33110012     1.05500
O490        O  0.31677911  0.41862613  0.38892367    -0.79300
O491        O  0.34179593  0.42762089  0.32870899    -0.66800
Ni492      Ni  0.36053507  0.27609239  0.35194461     1.34900
C493        C  0.31916764  0.40807331  0.31592027     0.84300
O494        O  0.29645596  0.31025867  0.40135194    -0.79800
O495        O  0.32827381  0.26394177  0.38525281    -0.90100
C496        C  0.31007883  0.40658330  0.41749071     0.83800
O497        O  0.39400974  0.28721260  0.38874050    -0.68300
O498        O  0.40803644  0.42187339  0.35746335    -0.87600
C499        C  0.38719955  0.30168691  0.41705030     0.84700
C500        C  0.30306526  0.27776320  0.40058677     1.06200
H501        H  0.38687684  0.36676057  0.38668109     0.38000
O502        O  0.36564445  0.37270904  0.37377651    -1.10200
O503        O  0.32631914  0.37644642  0.31380948    -0.66900
Ni504      Ni  0.36841111  0.35270041  0.33068230     1.26300
O505        O  0.36180102  0.32246409  0.41974026    -0.67100
O506        O  0.40084587  0.38558453  0.31400999    -0.79400
C507        C  0.38497939  0.30159277  0.28764849     0.84000
O508        O  0.36910015  0.32998746  0.28909036    -0.66600
Ni509      Ni  0.36219611  0.42050949  0.37364835     1.27400
Ni510      Ni  0.32904509  0.34435181  0.38825163     1.26100
H511        H  0.31836129  0.31788212  0.33405604     0.38600
C512        C  0.58843244  0.48470230  0.24652201     0.02700
C513        C  0.56590079  0.50736981  0.22657741    -0.13500
C514        C  0.52917512  0.50601162  0.22816778     0.00200
C515        C  0.51551817  0.48265833  0.25003105    -0.12000
C516        C  0.53645446  0.46126947  0.27093387     0.02600
C517        C  0.57289258  0.46160651  0.26883065    -0.11400
H518        H  0.57677962  0.52564066  0.20972746     0.08200
H519        H  0.48759866  0.48214828  0.25207756     0.05800
H520        H  0.58898976  0.44503919  0.28540107     0.05600
C521        C  0.49159224  0.75605226  0.90062748     0.02700
C522        C  0.51970904  0.76895387  0.92157871    -0.13500
C523        C  0.51731643  0.77075427  0.95772105     0.00200
C524        C  0.48800393  0.75851414  0.97212398    -0.12000
C525        C  0.46060717  0.74534949  0.95250512     0.02600
C526        C  0.46227885  0.74398862  0.91683918    -0.11400
H527        H  0.54251091  0.77815022  0.90994599     0.08200
H528        H  0.48675195  0.75863085  0.99970831     0.05800
H529        H  0.44083945  0.73356646  0.90173664     0.05600
O530        O  0.40654785  0.69174242  0.09092499    -0.81400
O531        O  0.31402864  0.60148341  0.18355638    -0.66100
O532        O  0.37337338  0.63459369  0.11583686    -1.12700
C533        C  0.28210354  0.71452607  0.09218817     1.05500
O534        O  0.26732133  0.60969493  0.14814310    -0.79300
O535        O  0.26420407  0.63746812  0.08694319    -0.66800
Ni536      Ni  0.41528254  0.65628054  0.12611700     1.34900
C537        C  0.28685183  0.61725240  0.07506098     0.84300
O538        O  0.38346214  0.58539067  0.16537369    -0.79800
O539        O  0.42836217  0.62068508  0.15856737    -0.90100
C540        C  0.28171613  0.59727550  0.17524538     0.83800
O541        O  0.39762826  0.68443347  0.16218825    -0.68300
O542        O  0.26612999  0.70248452  0.11697855    -0.87600
C543        C  0.38324849  0.67327930  0.18850397     0.84700
C544        C  0.41615425  0.59254984  0.16879121     1.06200
H545        H  0.32108433  0.67596312  0.15182828     0.38000
O546        O  0.31635051  0.65672794  0.13713176    -1.10200
O547        O  0.31843737  0.62519282  0.07612488    -0.66900
Ni548      Ni  0.33898417  0.66465796  0.09654819     1.26300
O549        O  0.36513389  0.64684238  0.18748737    -0.67100
O550        O  0.30461384  0.69652206  0.07710591    -0.79400
C551        C  0.39176069  0.68731271  0.06124303     0.84000
O552        O  0.36432548  0.67069350  0.05764877    -0.66600
Ni553      Ni  0.26751658  0.65558179  0.13247845     1.27400
Ni554      Ni  0.34667134  0.61885393  0.15159489     1.26100
H555        H  0.37793483  0.61593700  0.10044765     0.38600
C556        C  0.22801215  0.57409905  0.50326812     0.02700
C557        C  0.21151746  0.55691615  0.53021298    -0.13500
C558        C  0.21152875  0.52068730  0.53163458     0.00200
C559        C  0.22782342  0.50225693  0.50684576    -0.12000
C560        C  0.24478805  0.51793720  0.48117055     0.02600
C561        C  0.24497145  0.55376308  0.47895493    -0.11400
H562        H  0.19895479  0.57140719  0.54977421     0.08200
H563        H  0.22837458  0.47455751  0.50824410     0.05800
H564        H  0.25898935  0.56556462  0.45907177     0.05600
O565        O  0.69869033  0.86993237  0.22159923    -0.81400
O566        O  0.59034187  0.80844231  0.10990022    -0.66100
O567        O  0.66299725  0.81952267  0.18154211    -1.12700
C568        C  0.71027314  0.88304393  0.09527826     1.05500
O569        O  0.63347042  0.79247409  0.07858739    -0.79300
O570        O  0.70125365  0.80227174  0.08173198    -0.66800
Ni571      Ni  0.65761836  0.84149891  0.22359271     1.34900
C572        C  0.70960537  0.78404748  0.10766367     0.84300
O573        O  0.59831014  0.78911861  0.18047938    -0.79800
O574        O  0.61818985  0.81389618  0.22993050    -0.90100
C575        C  0.60122737  0.79673905  0.08139975     0.83800
O576        O  0.62730618  0.87797584  0.20688479    -0.68300
O577        O  0.68724669  0.87198851  0.07394366    -0.87600
C578        C  0.59986295  0.87655209  0.18752059     0.84700
C579        C  0.59794428  0.79404615  0.21305301     1.06200
H580        H  0.64322890  0.86580694  0.12210708     0.38000
O581        O  0.65287592  0.84283714  0.12204832    -1.10200
O582        O  0.70756372  0.79609705  0.13766254    -0.66900
Ni583      Ni  0.69277328  0.84171796  0.15223223     1.26300
O584        O  0.59655466  0.85464357  0.16340977    -0.67100
O585        O  0.72107953  0.86608425  0.12164362    -0.79400
C586        C  0.72868257  0.86263454  0.21041610     0.84000
O587        O  0.73093265  0.84232671  0.18535057    -0.66600
Ni588      Ni  0.66076846  0.83174038  0.07609935     1.27400
Ni589      Ni  0.62445301  0.81519529  0.14883457     1.26100
H590        H  0.67210998  0.79686678  0.18681438     0.38600
C591        C  0.72771710  0.60308104  0.00801148     0.02700
C592        C  0.72670000  0.62206920  0.03936327    -0.13500
C593        C  0.72805924  0.65845240  0.03967618     0.00200
C594        C  0.73090347  0.67532733  0.00875324    -0.12000
C595        C  0.73387920  0.65812045  0.97799997     0.02600
C596        C  0.73135482  0.62209026  0.97751592    -0.11400
H597        H  0.72515334  0.60870071  0.06326306     0.08200
H598        H  0.73274732  0.70287957  0.00895088     0.05800
H599        H  0.73370443  0.60892451  0.95350957     0.05600
O600        O  0.78531289  0.10504641  0.60974934    -0.81400
O601        O  0.88028982  0.20229782  0.70382300    -0.66100
O602        O  0.84391204  0.13244115  0.64430221    -1.12700
C603        C  0.77344373  0.10573897  0.73530190     1.05500
O604        O  0.87383381  0.17119779  0.75110456    -0.79300
O605        O  0.85556615  0.10801431  0.75113678    -0.66800
Ni606      Ni  0.81997329  0.14004206  0.60216480     1.34900
C607        C  0.87203461  0.09400260  0.72736329     0.84300
O608        O  0.89237935  0.17989551  0.63599813    -0.79800
O609        O  0.85484661  0.17157808  0.59031999    -0.90100
C610        C  0.88769937  0.19502364  0.73549250     0.83800
O611        O  0.79131891  0.17757560  0.61763953    -0.68300
O612        O  0.78545598  0.13100242  0.75167257    -0.87600
C613        C  0.80268899  0.20513644  0.63102688     0.84700
C614        C  0.88419086  0.18059267  0.60351785     1.06200
H615        H  0.80413890  0.16961706  0.69644649     0.38000
O616        O  0.82446177  0.15513443  0.70088773    -1.10200
O617        O  0.85914652  0.09366070  0.69697455    -0.66900
Ni618      Ni  0.81678913  0.11334164  0.67729203     1.26300
O619        O  0.82973139  0.20509271  0.65119957    -0.67100
O620        O  0.78822305  0.09308114  0.70992632    -0.79400
C621        C  0.79201939  0.07578780  0.62379332     0.84000
O622        O  0.81076161  0.07367875  0.65102305    -0.66600
Ni623      Ni  0.83011570  0.15099544  0.74924455     1.27400
Ni624      Ni  0.86024868  0.16922643  0.67117282     1.26100
H625        H  0.86335518  0.11732164  0.64006284     0.38600
C626        C  0.66194995  0.01911395  0.75795053     0.02700
C627        C  0.62586188  0.01864112  0.76093937    -0.13500
C628        C  0.60840010  0.98738155  0.76313167     0.00200
C629        C  0.62879426  0.95636231  0.76302922    -0.12000
C630        C  0.66545846  0.95703594  0.76070312     0.02600
C631        C  0.68095147  0.98854250  0.75781592    -0.11400
H632        H  0.61151112  0.04266813  0.76112664     0.08200
H633        H  0.61645859  0.93208790  0.76542668     0.05800
H634        H  0.70889045  0.98947379  0.75628850     0.05600
O635        O  0.87749646  0.76495958  0.79800877    -0.81400
O636        O  0.80089299  0.85751976  0.90554004    -0.66100
O637        O  0.82180849  0.79897324  0.82971831    -1.12700
C638        C  0.89001957  0.89294004  0.80114471     1.05500
O639        O  0.79086404  0.89690477  0.86634393    -0.79300
O640        O  0.80846987  0.90554286  0.80269450    -0.66800
Ni641      Ni  0.84548526  0.75644639  0.83432479     1.34900
C642        C  0.79074078  0.88179213  0.78955789     0.84300
O643        O  0.78360339  0.78936655  0.88755340    -0.79800
O644        O  0.81382390  0.74383564  0.86799380    -0.90100
C645        C  0.79240098  0.88843194  0.89734831     0.83800
O646        O  0.87874415  0.76870338  0.87056540    -0.68300
O647        O  0.87699746  0.90937395  0.82572062    -0.87600
C648        C  0.87341594  0.78589084  0.89759598     0.84700
C649        C  0.79023992  0.75682721  0.88619460     1.06200
H650        H  0.86572501  0.85378965  0.86159414     0.38000
O651        O  0.84348109  0.85614970  0.84934938    -1.10200
O652        O  0.80242879  0.85116278  0.78968518    -0.66900
Ni653      Ni  0.84707190  0.83279501  0.80773136     1.26300
O654        O  0.84884974  0.80782929  0.89933217    -0.67100
O655        O  0.87521938  0.86718315  0.78716789    -0.79400
C656        C  0.87005464  0.77950717  0.76914788     0.84000
O657        O  0.85066422  0.80610428  0.76775079    -0.66600
Ni658      Ni  0.83353536  0.90346261  0.84600890     1.27400
Ni659      Ni  0.81191929  0.82524576  0.86923145     1.26100
H660        H  0.80023540  0.79509942  0.81697196     0.38600
O661        O  0.20661857  0.70060751  0.88889074    -0.81400
O662        O  0.11308036  0.59656407  0.80628598    -0.66100
O663        O  0.17351857  0.66945454  0.83178325    -1.12700
C664        C  0.07749131  0.70261573  0.89512105     1.05500
O665        O  0.07601956  0.63852722  0.79386514    -0.79300
O666        O  0.06640876  0.70266026  0.81332070    -0.66800
Ni667      Ni  0.21568102  0.66323389  0.85726327     1.34900
C668        C  0.09144616  0.71393788  0.79743600     0.84300
O669        O  0.18281730  0.60994123  0.79366750    -0.79800
O670        O  0.22852306  0.62852573  0.82592409    -0.90100
C671        C  0.08288473  0.60695463  0.79526640     0.83800
O672        O  0.20160963  0.62812097  0.88832365    -0.68300
O673        O  0.05964411  0.67977262  0.87966574    -0.87600
C674        C  0.18345903  0.60178810  0.88189945     0.84700
C675        C  0.21558678  0.60977063  0.80228632     1.06200
H676        H  0.11539336  0.64168865  0.87097454     0.38000
O677        O  0.11428844  0.65342904  0.84927626    -1.10200
O678        O  0.12220399  0.71186977  0.81061025    -0.66900
Ni679      Ni  0.13882249  0.69380018  0.85515652     1.26300
O680        O  0.16183269  0.60056753  0.85648561    -0.67100
O681        O  0.10339179  0.71621148  0.88157288    -0.79400
C682        C  0.19389840  0.73012616  0.88041440     0.84000
O683        O  0.16666315  0.73255490  0.86112632    -0.66600
Ni684      Ni  0.06689543  0.65931623  0.83611509     1.27400
Ni685      Ni  0.14627979  0.63100938  0.81985688     1.26100
H686        H  0.17846127  0.68137043  0.81109488     0.38600
C687        C  0.99397352  0.73988540  0.61038904     0.02700
C688        C  0.02471323  0.74024593  0.63255989    -0.13500
C689        C  0.02255088  0.74382834  0.66871314     0.00200
C690        C  0.98983120  0.74793193  0.68182424    -0.12000
C691        C  0.95944439  0.74775449  0.66133756     0.02600
C692        C  0.96140435  0.74330494  0.62573255    -0.11400
H693        H  0.04989561  0.73708580  0.62190173     0.08200
H694        H  0.98773719  0.75049066  0.70919071     0.05800
H695        H  0.93762582  0.74284437  0.60999437     0.05600
C696        C  0.95946096  0.46787537  0.75827649     0.02700
C697        C  0.92316018  0.47049300  0.75881583    -0.13500
C698        C  0.90684142  0.50125949  0.76914646     0.00200
C699        C  0.92764605  0.52897894  0.77957848    -0.12000
C700        C  0.96400301  0.52530020  0.78034138     0.02600
C701        C  0.97918266  0.49522907  0.76919840    -0.11400
H702        H  0.90771550  0.44901622  0.75088889     0.08200
H703        H  0.91576194  0.55279189  0.78752081     0.05800
H704        H  0.00723056  0.49340318  0.76826492     0.05600
C705        C  0.36530813  0.47964454  0.74324283     0.02700
C706        C  0.34650204  0.51091453  0.74565901    -0.13500
C707        C  0.30991507  0.51180217  0.74379213     0.00200
C708        C  0.29251001  0.48136568  0.73915464    -0.12000
C709        C  0.31047632  0.45007895  0.73740864     0.02600
C710        C  0.34683626  0.44921998  0.73956225    -0.11400
H711        H  0.36017832  0.53435517  0.75022550     0.08200
H712        H  0.26441416  0.48180796  0.73851122     0.05800
H713        H  0.36063248  0.42493693  0.73807709     0.05600
C714        C  0.74600029  0.90688764  0.51140008     0.02700
C715        C  0.75226228  0.92469600  0.54286321    -0.13500
C716        C  0.75498135  0.96064020  0.54319713     0.00200
C717        C  0.75260829  0.97813831  0.51249471    -0.12000
C718        C  0.74516479  0.96183148  0.48177343     0.02600
C719        C  0.74234111  0.92621197  0.48094904    -0.11400
H720        H  0.75471842  0.91100473  0.56680546     0.08200
H721        H  0.75433336  0.00572772  0.51279288     0.05800
H722        H  0.73525479  0.91402703  0.45695884     0.05600
C723        C  0.03430392  0.23548813  0.50599548     0.02700
C724        C  0.00523032  0.22250789  0.51994972    -0.13500
C725        C  0.97826622  0.20952574  0.50003157     0.00200
C726        C  0.97916737  0.21120524  0.46411338    -0.12000
C727        C  0.00828192  0.22505898  0.44845712     0.02600
C728        C  0.03603507  0.23723475  0.47013363    -0.11400
H729        H  0.00347930  0.22256610  0.54751142     0.08200
H730        H  0.95776197  0.20129242  0.44864527     0.05800
H731        H  0.05837378  0.24841092  0.45936963     0.05600
C732        C  0.97771536  0.23384459  0.84822847     0.02700
C733        C  0.00819506  0.24410062  0.83459352    -0.13500
C734        C  0.03515079  0.25773680  0.85442784     0.00200
C735        C  0.03255300  0.25971832  0.89005542    -0.12000
C736        C  0.00285543  0.24746549  0.90584881     0.02600
C737        C  0.97502980  0.23493974  0.88428311    -0.11400
H738        H  0.01036422  0.24319988  0.80710281     0.08200
H739        H  0.05325485  0.27119442  0.90529781     0.05800
H740        H  0.95211502  0.22545402  0.89545612     0.05600
C741        C  0.47310612  0.74019115  0.36266730     0.02700
C742        C  0.44348301  0.73130732  0.34218378    -0.13500
C743        C  0.44494440  0.73015188  0.30638717     0.00200
C744        C  0.47599230  0.73677645  0.29145348    -0.12000
C745        C  0.50491283  0.74709600  0.31064797     0.02600
C746        C  0.50392650  0.74828868  0.34653743    -0.11400
H747        H  0.41956017  0.72551618  0.35396871     0.08200
H748        H  0.47729909  0.73534188  0.26391692     0.05800
H749        H  0.52631830  0.75671380  0.36161630     0.05600
C750        C  0.83070633  0.01989334  0.26410141     0.02700
C751        C  0.81552090  0.98917365  0.25522848    -0.13500
C752        C  0.83466561  0.95860582  0.25313841     0.00200
C753        C  0.87164613  0.96013691  0.25553514    -0.12000
C754        C  0.88878088  0.99192936  0.26132073     0.02600
C755        C  0.86740594  0.02155337  0.26625815    -0.11400
H756        H  0.78749830  0.98878462  0.25189938     0.08200
H757        H  0.88689447  0.93683571  0.25298046     0.05800
H758        H  0.87923200  0.04559847  0.27259114     0.05600
C759        C  0.25705522  0.84031999  0.02129398     0.02700
C760        C  0.24720072  0.82425653  0.99100258    -0.13500
C761        C  0.24228253  0.84204411  0.96045478     0.00200
C762        C  0.24612105  0.87779755  0.96022246    -0.12000
C763        C  0.25532919  0.89563066  0.99084637     0.02600
C764        C  0.26089985  0.87613228  0.02147556    -0.11400
H765        H  0.24419454  0.79679839  0.99105174     0.08200
H766        H  0.24152551  0.89148474  0.93644417     0.05800
H767        H  0.26915642  0.88845349  0.04505404     0.05600
C768        C  0.74348593  0.37317108  0.51759555     0.02700
C769        C  0.73504374  0.35407212  0.48753527    -0.13500
C770        C  0.73527409  0.31789343  0.48807643     0.00200
C771        C  0.74465591  0.30100945  0.51859263    -0.12000
C772        C  0.75327085  0.31846403  0.54873261     0.02600
C773        C  0.75251118  0.35470841  0.54825001    -0.11400
H774        H  0.72750396  0.36727127  0.46400908     0.08200
H775        H  0.74494364  0.27335065  0.51897249     0.05800
H776        H  0.75910126  0.36839879  0.57151777     0.05600
C777        C  0.12871513  0.49126029  0.25999500     0.02700
C778        C  0.15054733  0.46558419  0.27612410    -0.13500
C779        C  0.18679386  0.46553934  0.27260846     0.00200
C780        C  0.20092267  0.49056352  0.25304089    -0.12000
C781        C  0.18080717  0.51654770  0.23774304     0.02600
C782        C  0.14448742  0.51735787  0.24134127    -0.11400
H783        H  0.13947895  0.44611422  0.29148037     0.08200
H784        H  0.22881098  0.49034825  0.25042755     0.05800
H785        H  0.12863403  0.53725247  0.22881896     0.05600
C786        C  0.23465247  0.43200282  0.99939362     0.02700
C787        C  0.22008912  0.44859282  0.96906443    -0.13500
C788        C  0.21512535  0.48466694  0.96787199     0.00200
C789        C  0.22311850  0.50336467  0.99694142    -0.12000
C790        C  0.24111637  0.48891845  0.02494127     0.02600
C791        C  0.24658454  0.45318326  0.02671335    -0.11400
H792        H  0.21316051  0.43385201  0.94657926     0.08200
H793        H  0.21928380  0.53091541  0.99604100     0.05800
H794        H  0.26078283  0.44214597  0.04865345     0.05600
C795        C  0.43295516  0.99357058  0.25018559     0.02700
C796        C  0.45283772  0.02107398  0.26410867    -0.13500
C797        C  0.48952959  0.02136166  0.26186324     0.00200
C798        C  0.50617994  0.99461623  0.24544973    -0.12000
C799        C  0.48847894  0.96655030  0.23264997     0.02600
C800        C  0.45177962  0.96607436  0.23472732    -0.11400
H801        H  0.44005609  0.04177657  0.27717055     0.08200
H802        H  0.53417619  0.99487669  0.24403751     0.05800
H803        H  0.43812881  0.94428973  0.22457001     0.05600
C804        C  0.49486941  0.25531107  0.12416356     0.02700
C805        C  0.52423400  0.24848862  0.14714966    -0.13500
C806        C  0.52262971  0.25614819  0.18249002     0.00200
C807        C  0.49290704  0.27204522  0.19388749    -0.12000
C808        C  0.46267374  0.27397737  0.17348868     0.02600
C809        C  0.46349077  0.26648536  0.13855855    -0.11400
H810        H  0.54745481  0.23635160  0.13799875     0.08200
H811        H  0.49168690  0.27822498  0.22081272     0.05800
H812        H  0.43979477  0.26984605  0.12298107     0.05600
C813        C  0.23148084  0.11225778  0.49638689     0.02700
C814        C  0.21782221  0.13144555  0.52388269    -0.13500
C815        C  0.21571217  0.16762565  0.52234641     0.00200
C816        C  0.22687422  0.18410371  0.49392455    -0.12000
C817        C  0.24339712  0.16682752  0.46836385     0.02600
C818        C  0.24556458  0.13075384  0.46919615    -0.11400
H819        H  0.20828107  0.11850389  0.54573969     0.08200
H820        H  0.22546462  0.21181249  0.49312031     0.05800
H821        H  0.25879624  0.11726673  0.44937343     0.05600
C822        C  0.01794822  0.73825587  0.01989000     0.02700
C823        C  0.01749812  0.73321930  0.05547848    -0.13500
C824        C  0.98745474  0.74204325  0.07372607     0.00200
C825        C  0.95747763  0.75464153  0.05451237    -0.12000
C826        C  0.95858063  0.75975976  0.01884969     0.02600
C827        C  0.98903498  0.75266010  0.00268046    -0.11400
H828        H  0.04013684  0.72168422  0.06859375     0.08200
H829        H  0.93368101  0.76055401  0.06692781     0.05800
H830        H  0.98932061  0.75597249  0.97520363     0.05600
C831        C  0.75140404  0.00546621  0.04248035     0.02700
C832        C  0.76033373  0.98735991  0.01368138    -0.13500
C833        C  0.76890391  0.00359935  0.98410001     0.00200
C834        C  0.76848941  0.03967489  0.98307248    -0.12000
C835        C  0.75884134  0.05918898  0.01206339     0.02600
C836        C  0.75077178  0.04130541  0.04195325    -0.11400
H837        H  0.75990151  0.95967434  0.01408088     0.08200
H838        H  0.77533857  0.05213985  0.95987481     0.05800
H839        H  0.74273394  0.05499096  0.06427005     0.05600
C840        C  0.00284437  0.02342229  0.74887075     0.02700
C841        C  0.98810429  0.99253615  0.75614968    -0.13500
C842        C  0.00808424  0.96331314  0.76332142     0.00200
C843        C  0.04454117  0.96475813  0.76261131    -0.12000
C844        C  0.06089926  0.99596961  0.75536061     0.02600
C845        C  0.03936187  0.02549955  0.74872524    -0.11400
H846        H  0.96007026  0.99133704  0.75675406     0.08200
H847        H  0.05999861  0.94192912  0.76850215     0.05800
H848        H  0.05070775  0.04960992  0.74287409     0.05600
C849        C  0.20890581  0.76200359  0.89507729    -0.06600
C850        C  0.18684112  0.79072922  0.89937072    -0.17700
C851        C  0.19840068  0.81991149  0.91692736     0.10600
C852        C  0.23289736  0.82084271  0.93009986    -0.06500
C853        C  0.25593180  0.79388950  0.92227515    -0.17800
C854        C  0.24440299  0.76453100  0.90509323     0.10600
S855        S  0.16821145  0.85439133  0.92536359    -0.32700
S856        S  0.27529460  0.73058193  0.89652268    -0.32700
H857        H  0.30486683  0.74629527  0.91092619     0.28600
H858        H  0.14054618  0.84257162  0.90433465     0.28600
H859        H  0.15991079  0.78958311  0.89066942     0.19200
H860        H  0.28250257  0.79472622  0.93232799     0.19200
C861        C  0.19002218  0.56974834  0.90259647    -0.06600
C862        C  0.22458448  0.55972008  0.91060068    -0.17700
C863        C  0.23344164  0.52836170  0.92636284     0.10600
C864        C  0.20731700  0.50640082  0.93683220    -0.06500
C865        C  0.17264838  0.51568102  0.92779151    -0.17800
C866        C  0.16381307  0.54660564  0.91049311     0.10600
S867        S  0.27891735  0.51921818  0.93580123    -0.32700
S868        S  0.11842161  0.55623269  0.90174130    -0.32700
H869        H  0.12098366  0.59127258  0.90855535     0.28600
H870        H  0.27578324  0.48368282  0.93814342     0.28600
H871        H  0.24515956  0.57639989  0.90421604     0.19200
H872        H  0.15214051  0.50006924  0.93656181     0.19200
C873        C  0.04550356  0.72575305  0.99745373    -0.06600
C874        C  0.06277620  0.75047231  0.97910333    -0.17700
C875        C  0.07421566  0.74391675  0.94605503     0.10600
C876        C  0.06847425  0.71170174  0.93082527    -0.06500
C877        C  0.05428323  0.68614423  0.95072020    -0.17800
C878        C  0.04313755  0.69268586  0.98357460     0.10600
S879        S  0.09218330  0.77816261  0.92247130    -0.32700
S880        S  0.02163187  0.65903551  0.00470472    -0.32700
H881        H  0.03373107  0.66823014  0.03765892     0.28600
H882        H  0.09467977  0.80162148  0.94952500     0.28600
H883        H  0.06371873  0.77614515  0.98916736     0.19200
H884        H  0.05091109  0.66082811  0.94024154     0.19200
C885        C  0.24119416  0.58678104  0.78551510    -0.06600
C886        C  0.23426394  0.57492021  0.75215682    -0.17700
C887        C  0.25802494  0.55326906  0.73603598     0.10600
C888        C  0.28922523  0.54238871  0.75378011    -0.06500
C889        C  0.29692912  0.55554454  0.78615824    -0.17800
C890        C  0.27365470  0.57715637  0.80240197     0.10600
S891        S  0.24716623  0.54034224  0.69281346    -0.32700
S892        S  0.28562801  0.58908662  0.84598182    -0.32700
H893        H  0.31985051  0.57588571  0.84761409     0.28600
H894        H  0.28143229  0.53282228  0.68419365     0.28600
H895        H  0.21031244  0.58263940  0.73847296     0.19200
H896        H  0.32035139  0.54657930  0.79995712     0.19200
C897        C  0.05324319  0.58437560  0.79026024    -0.06600
C898        C  0.04471238  0.56358294  0.81745751    -0.17700
C899        C  0.01262949  0.54774758  0.81735308     0.10600
C900        C  0.98846088  0.55241257  0.78935121    -0.06500
C901        C  0.99645209  0.57432800  0.76291572    -0.17800
C902        C  0.02855489  0.58993975  0.76288430     0.10600
S903        S  0.00449900  0.52032526  0.85278052    -0.32700
S904        S  0.03721263  0.61539287  0.72623633    -0.32700
H905        H  0.07330070  0.60936004  0.72820818     0.28600
H906        H  0.96820040  0.52111427  0.84772941     0.28600
H907        H  0.06267626  0.56047708  0.83937490     0.19200
H908        H  0.97881532  0.57688360  0.74066721     0.19200
C909        C  0.08422490  0.72668635  0.76164325    -0.06600
C910        C  0.08616237  0.70309564  0.73464442    -0.17700
C911        C  0.07051569  0.70997253  0.70186098     0.10600
C912        C  0.05214599  0.74111310  0.69550002    -0.06500
C913        C  0.05384265  0.76611554  0.72155735    -0.17800
C914        C  0.06931198  0.75920659  0.75425244     0.10600
S915        S  0.07085307  0.67733361  0.66953952    -0.32700
S916        S  0.06675159  0.79195587  0.78630960    -0.32700
H917        H  0.09560369  0.78015500  0.80660091     0.28600
H918        H  0.09619542  0.65606625  0.68620510     0.28600
H919        H  0.09769527  0.67811135  0.73997942     0.19200
H920        H  0.04009602  0.79029368  0.71738416     0.19200
C921        C  0.92444572  0.90400579  0.79001101    -0.06600
C922        C  0.94875291  0.91458729  0.81549323    -0.17700
C923        C  0.98021164  0.92890253  0.80749945     0.10600
C924        C  0.98818835  0.93311443  0.77308535    -0.06500
C925        C  0.96568368  0.91912072  0.74769470    -0.17800
C926        C  0.93381814  0.90518129  0.75566030     0.10600
S927        S  0.00686241  0.94567334  0.84221130    -0.32700
S928        S  0.90469404  0.89350783  0.72061405    -0.32700
H929        H  0.87488436  0.90787974  0.73468993     0.28600
H930        H  0.03835497  0.94070013  0.82633525     0.28600
H931        H  0.94258932  0.91295543  0.84206910     0.19200
H932        H  0.97091325  0.92300991  0.72112387     0.19200
C933        C  0.78680469  0.91644720  0.92204094    -0.06600
C934        C  0.75491023  0.93452581  0.91902099    -0.17700
C935        C  0.74979166  0.96602124  0.93523596     0.10600
C936        C  0.77697301  0.98029515  0.95549165    -0.06500
C937        C  0.80937671  0.96303390  0.95728277    -0.17800
C938        C  0.81472771  0.93175354  0.94053887     0.10600
S939        S  0.70742029  0.98619764  0.93030439    -0.32700
S940        S  0.85831544  0.91402596  0.94208435    -0.32700
H941        H  0.84907254  0.87971359  0.94162591     0.28600
H942        H  0.71879924  0.01963326  0.93525277     0.28600
H943        H  0.73390820  0.92433357  0.90310911     0.19200
H944        H  0.83029047  0.97323654  0.97328577     0.19200
C945        C  0.89456422  0.77908934  0.92980213    -0.06600
C946        C  0.90545450  0.80668475  0.95026319    -0.17700
C947        C  0.92281492  0.80141650  0.98235706     0.10600
C948        C  0.92843011  0.76799965  0.99507507    -0.06500
C949        C  0.91535271  0.74068962  0.97567180    -0.17800
C950        C  0.89899812  0.74575067  0.94324200     0.10600
S951        S  0.93980833  0.83715543  0.00611828    -0.32700
S952        S  0.88435451  0.70914741  0.91930546    -0.32700
H953        H  0.88656081  0.68594064  0.94669398     0.28600
H954        H  0.92343486  0.86272837  0.98549534     0.28600
H955        H  0.90116937  0.83236597  0.94059768     0.19200
H956        H  0.92084401  0.71494112  0.98472514     0.19200
C957        C  0.88664618  0.76792245  0.73718686    -0.06600
C958        C  0.89094068  0.79206982  0.71121374    -0.17700
C959        C  0.91057280  0.78453490  0.68285470     0.10600
C960        C  0.92672905  0.75208079  0.67981732    -0.06500
C961        C  0.91967348  0.72694614  0.70396958    -0.17800
C962        C  0.89974737  0.73431784  0.73221693     0.10600
S963        S  0.91754248  0.81862662  0.65351439    -0.32700
S964        S  0.89293802  0.69986382  0.76126566    -0.32700
H965        H  0.85865134  0.71005044  0.76751703     0.28600
H966        H  0.91555062  0.79783827  0.62441799     0.28600
H967        H  0.88049762  0.81776600  0.71381066     0.19200
H968        H  0.93204966  0.70194484  0.70218131     0.19200
C969        C  0.69026902  0.92677124  0.76317318    -0.06600
C970        C  0.71535489  0.92376848  0.73819895    -0.17700
C971        C  0.74752217  0.90675175  0.74479503     0.10600
C972        C  0.75467641  0.89053662  0.77648133    -0.06500
C973        C  0.72807723  0.88975912  0.79975437    -0.17800
C974        C  0.69647444  0.90811460  0.79382343     0.10600
S975        S  0.77968034  0.90978400  0.71322464    -0.32700
S976        S  0.66704948  0.90985487  0.82801447    -0.32700
H977        H  0.66173840  0.94542299  0.82694177     0.28600
H978        H  0.80011635  0.88139632  0.72434999     0.28600
H979        H  0.71133903  0.93796472  0.71459524     0.19200
H980        H  0.73324840  0.87753750  0.82429599     0.19200
C981        C  0.91479699  0.21146502  0.75738086    -0.06600
C982        C  0.90428342  0.23763950  0.77950546    -0.17700
C983        C  0.92211149  0.24353422  0.81119724     0.10600
C984        C  0.95084874  0.22241855  0.82202084    -0.06500
C985        C  0.96102679  0.19615459  0.79984652    -0.17800
C986        C  0.94416611  0.19115857  0.76784491     0.10600
S987        S  0.90745736  0.27877859  0.83649955    -0.32700
S988        S  0.96011801  0.15675720  0.74191802    -0.32700
H989        H  0.94538166  0.16925466  0.71076426     0.28600
H990        H  0.90961054  0.26043126  0.86725391     0.28600
H991        H  0.88075523  0.25232582  0.77299641     0.19200
H992        H  0.98382598  0.18051223  0.80677847     0.19200
C993        C  0.90926730  0.18999356  0.57790388    -0.06600
C994        C  0.93730852  0.16749495  0.57289317    -0.17700
C995        C  0.95693648  0.16983283  0.54388864     0.10600
C996        C  0.94972318  0.19626837  0.51973403    -0.06500
C997        C  0.92103344  0.21803522  0.52412109    -0.17800
C998        C  0.90035015  0.21462821  0.55235089     0.10600
S999        S  0.99211567  0.13922993  0.53969006    -0.32700
S1000       S  0.86287209  0.24238141  0.55580297    -0.32700
H1001       H  0.86425246  0.25820077  0.52377416     0.28600
H1002       H  0.99599285  0.14449658  0.50466613     0.28600
H1003       H  0.94305115  0.14698107  0.59094409     0.19200
H1004       H  0.91607899  0.23898141  0.50644577     0.19200
C1005       C  0.90798385  0.07890025  0.73405847    -0.06600
C1006       C  0.92661003  0.06812194  0.70574283    -0.17700
C1007       C  0.96067963  0.05495163  0.70931432     0.10600
C1008       C  0.97742091  0.05193667  0.74193279    -0.06500
C1009       C  0.96010799  0.06494146  0.76999032    -0.17800
C1010       C  0.92580567  0.07788139  0.76663458     0.10600
S1011       S  0.98043197  0.03929523  0.67152920    -0.32700
S1012       S  0.90620433  0.09072302  0.80541758    -0.32700
H1013       H  0.87732843  0.06999205  0.79957126     0.28600
H1014       H  0.01473781  0.04396091  0.68384955     0.28600
H1015       H  0.91448522  0.06944888  0.68029857     0.19200
H1016       H  0.97220404  0.06178550  0.79533374     0.19200
C1017       C  0.78655876  0.23890742  0.61966426    -0.06600
C1018       C  0.80855461  0.26636330  0.61407878    -0.17700
C1019       C  0.79756089  0.29466226  0.59354073     0.10600
C1020       C  0.76324455  0.29666135  0.57943132    -0.06500
C1021       C  0.74015457  0.27142982  0.58887464    -0.17800
C1022       C  0.75130708  0.24290856  0.60865307     0.10600
S1023       S  0.82863578  0.32567594  0.58185239    -0.32700
S1024       S  0.71944442  0.21205502  0.61825327    -0.32700
H1025       H  0.73625126  0.20103837  0.64907009     0.28600
H1026       H  0.85667483  0.31268132  0.60253188     0.28600
H1027       H  0.83547845  0.26406621  0.62294556     0.19200
H1028       H  0.71355531  0.27278561  0.57874511     0.19200
C1029       C  0.77859785  0.04343636  0.60893312    -0.06600
C1030       C  0.80131789  0.01470825  0.60883831    -0.17700
C1031       C  0.79235822  0.98461097  0.59133969     0.10600
C1032       C  0.75972903  0.98268530  0.57400165    -0.06500
C1033       C  0.73553376  0.00991673  0.57770049    -0.17800
C1034       C  0.74463922  0.04017784  0.59462779     0.10600
S1035       S  0.82404842  0.95034457  0.58796936    -0.32700
S1036       S  0.71217171  0.07389270  0.59619120    -0.32700
H1037       H  0.72364356  0.08632959  0.62828201     0.28600
H1038       H  0.84883869  0.96346873  0.61155465     0.28600
H1039       H  0.82713409  0.01668252  0.62056814     0.19200
H1040       H  0.71027710  0.00878117  0.56450625     0.19200
C1041       C  0.68212921  0.05067571  0.75577834    -0.06600
C1042       C  0.70711750  0.05654326  0.78233057    -0.17700
C1043       C  0.73621589  0.07619611  0.77721993     0.10600
C1044       C  0.74060897  0.09056584  0.74484602    -0.06500
C1045       C  0.71437184  0.08691179  0.71914058    -0.17800
C1046       C  0.68521980  0.06740343  0.72427173     0.10600
S1047       S  0.76933749  0.07746121  0.81104575    -0.32700
S1048       S  0.65543706  0.06113769  0.68821382    -0.32700
H1049       H  0.62564010  0.06183163  0.70722984     0.28600
H1050       H  0.77187831  0.11309456  0.81016613     0.28600
H1051       H  0.70561216  0.04302436  0.80627005     0.19200
H1052       H  0.71745969  0.09802310  0.69423047     0.19200
C1053       C  0.74385178  0.67936973  0.94836600    -0.06600
C1054       C  0.72570536  0.71060618  0.94136774    -0.17700
C1055       C  0.73951469  0.73655660  0.92143560     0.10600
C1056       C  0.77196807  0.73104777  0.90700880    -0.06500
C1057       C  0.78862477  0.69872609  0.91216245    -0.17800
C1058       C  0.77559988  0.67347919  0.93296322     0.10600
S1059       S  0.71547771  0.77628290  0.91497224    -0.32700
S1060       S  0.80175720  0.63536395  0.94222274    -0.32700
H1061       H  0.83063485  0.64398679  0.92387783     0.28600
H1062       H  0.68704059  0.76807821  0.93415531     0.28600
H1063       H  0.70138777  0.71535959  0.95330901     0.19200
H1064       H  0.81307770  0.69338978  0.90086408     0.19200
C1065       C  0.56937832  0.89889612  0.19678810    -0.06600
C1066       C  0.56356819  0.90238245  0.23175139    -0.17700
C1067       C  0.53505597  0.92092902  0.24360001     0.10600
C1068       C  0.51104792  0.93763781  0.22036353    -0.06500
C1069       C  0.51611803  0.93359201  0.18522648    -0.17800
C1070       C  0.54471773  0.91439899  0.17326254     0.10600
S1071       S  0.53186122  0.92391354  0.28922717    -0.32700
S1072       S  0.54962838  0.91283016  0.12791650    -0.32700
H1073       H  0.58607636  0.91261587  0.12997767     0.28600
H1074       H  0.49573730  0.92937306  0.28851114     0.28600
H1075       H  0.58138147  0.89008231  0.25037885     0.19200
H1076       H  0.49891609  0.94718902  0.16700720     0.19200
C1077       C  0.76034650  0.88077616  0.22530364    -0.06600
C1078       C  0.75655854  0.90129366  0.25432785    -0.17700
C1079       C  0.78298428  0.92248379  0.26699339     0.10600
C1080       C  0.81355114  0.92656792  0.24870859    -0.06500
C1081       C  0.81916689  0.90350474  0.22194594    -0.17800
C1082       C  0.79367266  0.87970679  0.21113520     0.10600
S1083       S  0.77559075  0.94431598  0.30663022    -0.32700
S1084       S  0.80458174  0.84818492  0.17967153    -0.32700
H1085       H  0.84031458  0.85432875  0.18030142     0.28600
H1086       H  0.81083495  0.94911506  0.31555348     0.28600
H1087       H  0.73256648  0.90104961  0.26747528     0.19200
H1088       H  0.84285659  0.90507328  0.20849666     0.19200
C1089       C  0.72190614  0.91826333  0.09026597    -0.06600
C1090       C  0.69632580  0.94288007  0.08034468    -0.17700
C1091       C  0.70500558  0.97567396  0.07074677     0.10600
C1092       C  0.74015167  0.98436953  0.07081463    -0.06500
C1093       C  0.76531035  0.96141977  0.08545001    -0.17800
C1094       C  0.75664461  0.92814453  0.09456737     0.10600
S1095       S  0.67070415  0.00316112  0.05290187    -0.32700
S1096       S  0.79058995  0.89742106  0.10637614    -0.32700
H1097       H  0.81776820  0.92058741  0.10910592     0.28600
H1098       H  0.68575024  0.03348156  0.06448857     0.28600
H1099       H  0.66931238  0.93597627  0.07836282     0.19200
H1100       H  0.79236128  0.96785051  0.08482091     0.19200
C1101       C  0.57185188  0.77872222  0.23410294    -0.06600
C1102       C  0.54739592  0.80154577  0.24732268    -0.17700
C1103       C  0.52847954  0.79308698  0.27540460     0.10600
C1104       C  0.53305764  0.76056011  0.29062853    -0.06500
C1105       C  0.55748631  0.73752683  0.27744457    -0.17800
C1106       C  0.57721829  0.74645099  0.24973100     0.10600
S1107       S  0.49770230  0.82453513  0.28994482    -0.32700
S1108       S  0.60943908  0.71610948  0.23603746    -0.32700
H1109       H  0.60834902  0.72690651  0.20187643     0.28600
H1110       H  0.50038764  0.81448131  0.32433253     0.28600
H1111       H  0.54414937  0.82695616  0.23658438     0.19200
H1112       H  0.56028191  0.71203140  0.28799279     0.19200
C1113       C  0.71949422  0.74727882  0.10192304    -0.06600
C1114       C  0.69332579  0.72288644  0.10212282    -0.17700
C1115       C  0.69742679  0.69041465  0.08691755     0.10600
C1116       C  0.72825840  0.68167237  0.07055324    -0.06500
C1117       C  0.75592930  0.70456651  0.07449453    -0.17800
C1118       C  0.75175815  0.73705857  0.08943201     0.10600
S1119       S  0.66098205  0.66276791  0.08563121    -0.32700
S1120       S  0.78749539  0.76563943  0.08888519    -0.32700
H1121       H  0.77763020  0.78543733  0.11683689     0.28600
H1122       H  0.68108971  0.63300474  0.09215783     0.28600
H1123       H  0.66846543  0.73007586  0.11196128     0.19200
H1124       H  0.77989959  0.69863987  0.06227851     0.19200
C1125       C  0.25893213  0.57566347  0.19478781    -0.06600
C1126       C  0.24672870  0.54630206  0.17819721    -0.17700
C1127       C  0.21792259  0.52922973  0.18916972     0.10600
C1128       C  0.20055000  0.54107072  0.21793802    -0.06500
C1129       C  0.21218524  0.57087847  0.23421432    -0.17800
C1130       C  0.24073503  0.58850529  0.22271558     0.10600
S1131       S  0.20551595  0.49105292  0.16659285    -0.32700
S1132       S  0.25159927  0.62785738  0.24397828    -0.32700
H1133       H  0.28603730  0.62902141  0.23435288     0.28600
H1134       H  0.17058167  0.49267714  0.17510866     0.28600
H1135       H  0.25908185  0.53722545  0.15557685     0.19200
H1136       H  0.19991856  0.57964009  0.25697012     0.19200
C1137       C  0.27676878  0.58249770  0.06324192    -0.06600
C1138       C  0.24616565  0.56899604  0.07513035    -0.17700
C1139       C  0.23648642  0.53555359  0.06764500     0.10600
C1140       C  0.25768637  0.51427290  0.04798802    -0.06500
C1141       C  0.28928581  0.52692220  0.03777975    -0.17800
C1142       C  0.29857387  0.56077750  0.04427188     0.10600
S1143       S  0.19466737  0.52248897  0.08037202    -0.32700
S1144       S  0.33669021  0.57533512  0.02451865    -0.32700
H1145       H  0.32149001  0.60688874  0.01416787     0.28600
H1146       H  0.20234650  0.48728025  0.07913193     0.28600
H1147       H  0.22924751  0.58467581  0.09020001     0.19200
H1148       H  0.30482919  0.51161458  0.02099782     0.19200
C1149       C  0.27549924  0.75053149  0.08020461    -0.06600
C1150       C  0.30336684  0.76788583  0.06704591    -0.17700
C1151       C  0.29900301  0.80039995  0.05240151     0.10600
C1152       C  0.26601434  0.81678858  0.05044539    -0.06500
C1153       C  0.23867064  0.80078319  0.06610409    -0.17800
C1154       C  0.24293317  0.76797160  0.08068071     0.10600
S1155       S  0.33550828  0.81776763  0.03224838    -0.32700
S1156       S  0.20489563  0.74843948  0.09577543    -0.32700
H1157       H  0.21123053  0.71693633  0.07980773     0.28600
H1158       H  0.32593456  0.85205213  0.03752846     0.28600
H1159       H  0.32875876  0.75549332  0.06703249     0.19200
H1160       H  0.21288880  0.81233965  0.06372223     0.19200
C1161       C  0.41575122  0.72056761  0.28271643    -0.06600
C1162       C  0.40561614  0.68665324  0.28298347    -0.17700
C1163       C  0.39193735  0.67116205  0.25320966     0.10600
C1164       C  0.38919321  0.69006842  0.22214308    -0.06500
C1165       C  0.39518749  0.72510138  0.22321610    -0.17800
C1166       C  0.40733180  0.74067559  0.25336411     0.10600
S1167       S  0.38251481  0.62626752  0.25517085    -0.32700
S1168       S  0.41529085  0.78573128  0.25199467    -0.32700
H1169       H  0.41679727  0.79042338  0.28755772     0.28600
H1170       H  0.38241907  0.62387065  0.29092386     0.28600
H1171       H  0.41201913  0.67127041  0.30542694     0.19200
H1172       H  0.39167272  0.74021589  0.20014790     0.19200
C1173       C  0.54432733  0.78307059  0.98332219    -0.06600
C1174       C  0.57010086  0.75954366  0.99494769    -0.17700
C1175       C  0.58706033  0.76249500  0.02735434     0.10600
C1176       C  0.57876393  0.78986385  0.04967256    -0.06500
C1177       C  0.55387869  0.81427148  0.03745508    -0.17800
C1178       C  0.53694276  0.81125809  0.00481050     0.10600
S1179       S  0.61803642  0.72904524  0.03925987    -0.32700
S1180       S  0.50487977  0.84359968  0.99215678    -0.32700
H1181       H  0.50557712  0.83734126  0.95690964     0.28600
H1182       H  0.61050880  0.72910108  0.07395178     0.28600
H1183       H  0.57519736  0.73708041  0.97972764     0.19200
H1184       H  0.54814347  0.83629902  0.05303237     0.19200
C1185       C  0.43220446  0.73136894  0.97177716    -0.06600
C1186       C  0.43108960  0.69587059  0.97508832    -0.17700
C1187       C  0.41788501  0.68104859  0.00405517     0.10600
C1188       C  0.40559021  0.70209507  0.03035993    -0.06500
C1189       C  0.40352563  0.73746065  0.02545082    -0.17800
C1190       C  0.41594394  0.75216943  0.99606933     0.10600
S1191       S  0.41957920  0.63515458  0.00704151    -0.32700
S1192       S  0.41343001  0.79795913  0.99197801    -0.32700
H1193       H  0.41703047  0.79856954  0.95649018     0.28600
H1194       H  0.42683182  0.63364973  0.04246659     0.28600
H1195       H  0.44364687  0.67968424  0.95676628     0.19200
H1196       H  0.39244739  0.75367987  0.04465131     0.19200
C1197       C  0.44323547  0.56875048  0.18518837    -0.06600
C1198       C  0.47058308  0.58338298  0.20504878    -0.17700
C1199       C  0.49997726  0.56416878  0.21733398     0.10600
C1200       C  0.50294922  0.52917586  0.20956312    -0.06500
C1201       C  0.47548247  0.51439339  0.19003629    -0.17800
C1202       C  0.44616023  0.53361832  0.17763624     0.10600
S1203       S  0.53255452  0.58410649  0.24464293    -0.32700
S1204       S  0.41395875  0.51198095  0.15163732    -0.32700
H1205       H  0.40978745  0.53805219  0.12708989     0.28600
H1206       H  0.51783300  0.61726883  0.24330994     0.28600
H1207       H  0.46884392  0.61029315  0.21102165     0.19200
H1208       H  0.47671426  0.48728403  0.18479064     0.19200
C1209       C  0.29288102  0.43089893  0.43964727    -0.06600
C1210       C  0.25857400  0.43992641  0.42955448    -0.17700
C1211       C  0.24382859  0.47128518  0.43856757     0.10600
C1212       C  0.26327610  0.49420243  0.45901941    -0.06500
C1213       C  0.29780142  0.48550751  0.46877476    -0.17800
C1214       C  0.31282995  0.45431943  0.45906885     0.10600
S1215       S  0.19933256  0.48018662  0.42462661    -0.32700
S1216       S  0.35797549  0.44631997  0.47104278    -0.32700
H1217       H  0.35674463  0.41058403  0.46935728     0.28600
H1218       H  0.20092764  0.51582929  0.42768658     0.28600
H1219       H  0.24379042  0.42323243  0.41268841     0.19200
H1220       H  0.31252345  0.50229115  0.48558624     0.19200
C1221       C  0.45447585  0.41652212  0.31991505    -0.06600
C1222       C  0.46850728  0.44711712  0.33238493    -0.17700
C1223       C  0.49973043  0.45925654  0.32121413     0.10600
C1224       C  0.51749970  0.44134538  0.29589416    -0.06500
C1225       C  0.50572827  0.40910632  0.28596615    -0.17800
C1226       C  0.47487919  0.39614598  0.29819140     0.10600
S1227       S  0.51331532  0.50029570  0.33682506    -0.32700
S1228       S  0.46243575  0.35369312  0.28591369    -0.32700
H1229       H  0.49077338  0.34592453  0.26585802     0.28600
H1230       H  0.54816263  0.49601033  0.32860397     0.28600
H1231       H  0.45438614  0.46269591  0.35006590     0.19200
H1232       H  0.51928392  0.39530140  0.26657134     0.19200
C1233       C  0.28319873  0.25301132  0.41945641    -0.06600
C1234       C  0.25900124  0.23293028  0.40116979    -0.17700
C1235       C  0.24774660  0.20197207  0.41449715     0.10600
C1236       C  0.26253066  0.18949405  0.44589856    -0.06500
C1237       C  0.28829621  0.20880154  0.46289909    -0.17800
C1238       C  0.29720152  0.24082748  0.45106699     0.10600
S1239       S  0.21375592  0.18028831  0.39087038    -0.32700
S1240       S  0.32605892  0.26556492  0.47802694    -0.32700
H1241       H  0.31315964  0.29750521  0.46631976     0.28600
H1242       H  0.22133875  0.14782839  0.40471192     0.28600
H1243       H  0.24925948  0.24114236  0.37606654     0.19200
H1244       H  0.29874458  0.20052714  0.48776976     0.19200
C1245       C  0.28319479  0.42148929  0.30642286    -0.06600
C1246       C  0.26136451  0.40272229  0.28395221    -0.17700
C1247       C  0.22703830  0.41382103  0.27534549     0.10600
C1248       C  0.21293084  0.44306990  0.29114660    -0.06500
C1249       C  0.23354497  0.45962842  0.31610823    -0.17800
C1250       C  0.26862394  0.45082875  0.32214869     0.10600
S1251       S  0.20355053  0.39162845  0.24172193    -0.32700
S1252       S  0.29339743  0.48052739  0.34772277    -0.32700
H1253       H  0.31601990  0.48704888  0.32159491     0.28600
H1254       H  0.17037137  0.40200275  0.25137111     0.28600
H1255       H  0.27155211  0.38007942  0.27176384     0.19200
H1256       H  0.22360896  0.48297703  0.32727129     0.19200
C1257       C  0.39782387  0.29180227  0.25381764    -0.06600
C1258       C  0.40278128  0.31826969  0.23032510    -0.17700
C1259       C  0.41944462  0.31239972  0.20007349     0.10600
C1260       C  0.43077451  0.27916423  0.19215697    -0.06500
C1261       C  0.42193593  0.25205003  0.21335250    -0.17800
C1262       C  0.40584763  0.25797759  0.24412965     0.10600
S1263       S  0.43002997  0.34897011  0.17522015    -0.32700
S1264       S  0.39771666  0.22158136  0.27024555    -0.32700
H1265       H  0.36580009  0.23447338  0.28113717     0.28600
H1266       H  0.43333267  0.33118103  0.14446274     0.28600
H1267       H  0.39598513  0.34440947  0.23659318     0.19200
H1268       H  0.43099129  0.22639046  0.20766024     0.19200
C1269       C  0.43800118  0.27950982  0.51567687    -0.06600
C1270       C  0.42665245  0.25300646  0.49396570    -0.17700
C1271       C  0.41224919  0.25946917  0.46092612     0.10600
C1272       C  0.40741195  0.29339855  0.44941564    -0.06500
C1273       C  0.41620268  0.32002556  0.47210066    -0.17800
C1274       C  0.43176503  0.31346810  0.50467837     0.10600
S1275       S  0.39929325  0.22413926  0.43410058    -0.32700
S1276       S  0.44504055  0.34937539  0.53027874    -0.32700
H1277       H  0.44402936  0.33255674  0.56177808     0.28600
H1278       H  0.41400852  0.19806494  0.45516347     0.28600
H1279       H  0.43199258  0.22690995  0.50197863     0.19200
H1280       H  0.41133836  0.34623871  0.46415689     0.19200
C1281       C  0.51328699  0.04729858  0.27772913    -0.06600
C1282       C  0.53066479  0.03883637  0.30910123    -0.17700
C1283       C  0.56272268  0.05306534  0.31945010     0.10600
C1284       C  0.57801553  0.07758155  0.29865061    -0.06500
C1285       C  0.55957140  0.08726089  0.26809338    -0.17800
C1286       C  0.52802788  0.07239766  0.25743193     0.10600
S1287       S  0.58429030  0.03598327  0.35766738    -0.32700
S1288       S  0.50926284  0.08455333  0.21611942    -0.32700
H1289       H  0.47535324  0.07490029  0.22220816     0.28600
H1290       H  0.61684157  0.03253820  0.34326310     0.28600
H1291       H  0.52080340  0.01847241  0.32423078     0.19200
H1292       H  0.57009899  0.10631090  0.25182015     0.19200
C1293       C  0.74243062  0.08295132  0.28937770    -0.06600
C1294       C  0.76586298  0.07006602  0.31513948    -0.17700
C1295       C  0.79708949  0.05301958  0.30761281     0.10600
C1296       C  0.80588413  0.04812014  0.27334493    -0.06500
C1297       C  0.78272324  0.06145837  0.24753731    -0.17800
C1298       C  0.75126560  0.07824951  0.25505029     0.10600
S1299       S  0.82315441  0.03519891  0.34283823    -0.32700
S1300       S  0.72188394  0.08960237  0.21958021    -0.32700
H1301       H  0.69191035  0.07969730  0.23557121     0.28600
H1302       H  0.85489446  0.04380392  0.32963129     0.28600
H1303       H  0.75965083  0.07296159  0.34155620     0.19200
H1304       H  0.78785752  0.05624766  0.22112746     0.19200
C1305       C  0.70113007  0.23955832  0.41740886    -0.06600
C1306       C  0.67882043  0.26753407  0.42422667    -0.17700
C1307       C  0.68979683  0.29503289  0.44489199     0.10600
C1308       C  0.72443545  0.29574211  0.45832873    -0.06500
C1309       C  0.74752834  0.26945898  0.44856268    -0.17800
C1310       C  0.73636960  0.24166989  0.42850408     0.10600
S1311       S  0.65745748  0.32659394  0.45577948    -0.32700
S1312       S  0.76819144  0.20923730  0.41866861    -0.32700
H1313       H  0.75104251  0.19859431  0.38821148     0.28600
H1314       H  0.66792195  0.32855344  0.49051239     0.28600
H1315       H  0.65168984  0.26656154  0.41599007     0.19200
H1316       H  0.77423577  0.26957097  0.45837835     0.19200
C1317       C  0.58024496  0.22294272  0.27430413    -0.06600
C1318       C  0.59594785  0.24504994  0.25167628    -0.17700
C1319       C  0.57899450  0.25554938  0.22050509     0.10600
C1320       C  0.54641158  0.24202119  0.21055710    -0.06500
C1321       C  0.53131716  0.21947731  0.23313963    -0.17800
C1322       C  0.54713261  0.21078055  0.26479041     0.10600
S1323       S  0.60073827  0.28540810  0.19455959    -0.32700
S1324       S  0.52454940  0.18208095  0.29139183    -0.32700
H1325       H  0.54074296  0.19250525  0.32240043     0.28600
H1326       H  0.57138738  0.29823094  0.17582282     0.28600
H1327       H  0.62211861  0.25318667  0.25771969     0.19200
H1328       H  0.50588494  0.20961282  0.22657636     0.19200
C1329       C  0.57924028  0.20722822  0.45545135    -0.06600
C1330       C  0.58788139  0.23853542  0.47064861    -0.17700
C1331       C  0.57373565  0.24930286  0.50139162     0.10600
C1332       C  0.55053774  0.22838417  0.51816910    -0.06500
C1333       C  0.54259397  0.19672661  0.50336132    -0.17800
C1334       C  0.55656213  0.18603967  0.47256705     0.10600
S1335       S  0.58550500  0.29054641  0.51776403    -0.32700
S1336       S  0.54517595  0.14440991  0.45679408    -0.32700
H1337       H  0.55030456  0.15118698  0.42228550     0.28600
H1338       H  0.57837097  0.28364561  0.55182731     0.28600
H1339       H  0.60674349  0.25425705  0.45909947     0.19200
H1340       H  0.52373476  0.18096681  0.51490914     0.19200
C1341       C  0.73401749  0.98465271  0.45328013    -0.06600
C1342       C  0.75662890  0.01067234  0.44499336    -0.17700
C1343       C  0.74397349  0.04165070  0.43108394     0.10600
C1344       C  0.70802982  0.04614066  0.42389853    -0.06500
C1345       C  0.68611632  0.01866841  0.42831725    -0.17800
C1346       C  0.69846840  0.98846858  0.44374451     0.10600
S1347       S  0.77482173  0.07453811  0.42474229    -0.32700
S1348       S  0.66684962  0.95795986  0.45495739    -0.32700
H1349       H  0.67660042  0.95817105  0.48997194     0.28600
H1350       H  0.75585676  0.09178618  0.39835397     0.28600
H1351       H  0.78390481  0.00812155  0.45269009     0.19200
H1352       H  0.65854105  0.02175177  0.42219144     0.19200
C1353       C  0.18545390  0.43431870  0.58969863    -0.06600
C1354       C  0.16001118  0.45067755  0.56816585    -0.17700
C1355       C  0.16583283  0.48232647  0.55266797     0.10600
C1356       C  0.19771172  0.49882775  0.55872699    -0.06500
C1357       C  0.22249333  0.48311364  0.58149285    -0.17800
C1358       C  0.21686023  0.45133570  0.59654635     0.10600
S1359       S  0.13214918  0.49995054  0.52406672    -0.32700
S1360       S  0.25120332  0.43322707  0.62390563    -0.32700
H1361       H  0.24243246  0.39913246  0.61776189     0.28600
H1362       H  0.14257060  0.53391654  0.52720159     0.28600
H1363       H  0.13489989  0.43924240  0.56423274     0.19200
H1364       H  0.24772735  0.49434443  0.58532192     0.19200
C1365       C  0.08729101  0.28111676  0.76781694    -0.06600
C1366       C  0.10387244  0.25825181  0.79149255    -0.17700
C1367       C  0.09091903  0.25325294  0.82401745     0.10600
C1368       C  0.06243496  0.27328731  0.83448816    -0.06500
C1369       C  0.04995864  0.29992705  0.81306341    -0.17800
C1370       C  0.05904965  0.30139245  0.77909740     0.10600
S1371       S  0.10931539  0.21864647  0.84965339    -0.32700
S1372       S  0.02858377  0.32432289  0.75083228    -0.32700
H1373       H  0.02400344  0.29655395  0.72851173     0.28600
H1374       H  0.09789924  0.23118517  0.88079224     0.28600
H1375       H  0.12568792  0.24258485  0.78398937     0.19200
H1376       H  0.02732933  0.31464413  0.82032873     0.19200
C1377       C  0.07782131  0.27353377  0.59828660    -0.06600
C1378       C  0.08318117  0.23900803  0.58981352    -0.17700
C1379       C  0.07404531  0.22647989  0.55725844     0.10600
C1380       C  0.05989377  0.24885763  0.53167452    -0.06500
C1381       C  0.05738683  0.28373063  0.53895842    -0.17800
C1382       C  0.06568341  0.29638310  0.57184264     0.10600
S1383       S  0.07629588  0.18100516  0.54965139    -0.32700
S1384       S  0.05780271  0.34134243  0.57936558    -0.32700
H1385       H  0.05249152  0.35128399  0.54505164     0.28600
H1386       H  0.08493170  0.17100209  0.58346406     0.28600
H1387       H  0.09360634  0.22135562  0.60908147     0.19200
H1388       H  0.04517758  0.30055371  0.51981204     0.19200
C1389       C  0.23149904  0.38103431  0.71354392    -0.06600
C1390       C  0.26142621  0.37956358  0.69442545    -0.17700
C1391       C  0.29037711  0.39894419  0.70375828     0.10600
C1392       C  0.28962366  0.41909045  0.73342411    -0.06500
C1393       C  0.26276302  0.41487779  0.75580525    -0.17800
C1394       C  0.23379963  0.39589412  0.74629978     0.10600
S1395       S  0.32557055  0.40143760  0.67525673    -0.32700
S1396       S  0.19995847  0.39342297  0.77614733    -0.32700
H1397       H  0.18796252  0.36181949  0.76417476     0.28600
H1398       H  0.31391145  0.37635270  0.65212792     0.28600
H1399       H  0.26069120  0.36658226  0.67010713     0.19200
H1400       H  0.26289988  0.42906037  0.77950784     0.19200
C1401       C  0.20455430  0.19119942  0.54975260    -0.06600
C1402       C  0.22893803  0.19903720  0.57621370    -0.17700
C1403       C  0.22569293  0.22904115  0.59572306     0.10600
C1404       C  0.19734160  0.25203774  0.58921148    -0.06500
C1405       C  0.17318121  0.24427705  0.56259611    -0.17800
C1406       C  0.17657571  0.21466468  0.54286347     0.10600
S1407       S  0.25850217  0.23675629  0.62880445    -0.32700
S1408       S  0.14576886  0.20932633  0.50732208    -0.32700
H1409       H  0.14895741  0.17355495  0.50614113     0.28600
H1410       H  0.25338776  0.27236835  0.62925866     0.28600
H1411       H  0.25174879  0.18265148  0.58045371     0.19200
H1412       H  0.15051027  0.26080989  0.55803243     0.19200
C1413       C  0.97921923  0.43817673  0.74554421    -0.06600
C1414       C  0.00595918  0.42480196  0.76768878    -0.17700
C1415       C  0.03588779  0.40967016  0.75517646     0.10600
C1416       C  0.03818840  0.40553863  0.71966156    -0.06500
C1417       C  0.00994998  0.41548603  0.69775080    -0.17800
C1418       C  0.98085710  0.43231375  0.71020122     0.10600
S1419       S  0.07053760  0.39800187  0.78588654    -0.32700
S1420       S  0.94926338  0.45008475  0.67953756    -0.32700
H1421       H  0.92100686  0.43649314  0.69557236     0.28600
H1422       H  0.08645836  0.37257039  0.76644366     0.28600
H1423       H  0.00522134  0.42975383  0.79482062     0.19200
H1424       H  0.01151002  0.41202099  0.67046793     0.19200
C1425       C  0.20131256  0.92951427  0.41628087    -0.06600
C1426       C  0.23477986  0.94200560  0.41374947    -0.17700
C1427       C  0.24197508  0.97612563  0.42147809     0.10600
C1428       C  0.21564211  0.99818454  0.43342003    -0.06500
C1429       C  0.18135812  0.98718783  0.43065504    -0.17800
C1430       C  0.17387673  0.95340275  0.42175832     0.10600
S1431       S  0.28644127  0.98878099  0.42154542    -0.32700
S1432       S  0.12885298  0.94241455  0.41826245    -0.32700
H1433       H  0.13274560  0.92200101  0.38923820     0.28600
H1434       H  0.27881378  0.02402703  0.42221505     0.28600
H1435       H  0.25588575  0.92471188  0.40778213     0.19200
H1436       H  0.16067756  0.00385268  0.43909692     0.19200
C1437       C  0.07731103  0.77858647  0.43041278    -0.06600
C1438       C  0.08990751  0.75436129  0.45486356    -0.17700
C1439       C  0.07308007  0.74836757  0.48510531     0.10600
C1440       C  0.04237538  0.76678701  0.49212855    -0.06500
C1441       C  0.02947805  0.79094096  0.46758742    -0.17800
C1442       C  0.04628165  0.79675893  0.43699955     0.10600
S1443       S  0.09072066  0.71486346  0.51265646    -0.32700
S1444       S  0.02722926  0.82795380  0.40767763    -0.32700
H1445       H  0.02994742  0.80672527  0.37901130     0.28600
H1446       H  0.08457023  0.73239490  0.54302905     0.28600
H1447       H  0.11379512  0.74021989  0.45066358     0.19200
H1448       H  0.00487542  0.80392433  0.47137665     0.19200
C1449       C  0.08964041  0.78133882  0.24394583    -0.06600
C1450       C  0.08342943  0.74627929  0.24507921    -0.17700
C1451       C  0.06485635  0.73001740  0.21826563     0.10600
C1452       C  0.05121720  0.74919269  0.18982167    -0.06500
C1453       C  0.05906085  0.78359764  0.18774811    -0.17800
C1454       C  0.07765716  0.80002046  0.21414007     0.10600
S1455       S  0.05910327  0.68471765  0.22183718    -0.32700
S1456       S  0.08352933  0.84544709  0.20901044    -0.32700
H1457       H  0.05582302  0.85151020  0.18499643     0.28600
H1458       H  0.05208224  0.67902994  0.18683583     0.28600
H1459       H  0.09334850  0.73135631  0.26680166     0.19200
H1460       H  0.04849080  0.79833599  0.16617108     0.19200
C1461       C  0.22088471  0.75582352  0.40735230    -0.06600
C1462       C  0.25278561  0.74886691  0.42482771    -0.17700
C1463       C  0.26034820  0.71666855  0.43989724     0.10600
C1464       C  0.23422665  0.69184674  0.44113125    -0.06500
C1465       C  0.20394543  0.69738950  0.42047181    -0.17800
C1466       C  0.19788618  0.72828089  0.40234655     0.10600
S1467       S  0.30261820  0.70832312  0.46026503    -0.32700
S1468       S  0.15969248  0.73103270  0.37420899    -0.32700
H1469       H  0.17202912  0.75589835  0.35254034     0.28600
H1470       H  0.31908477  0.73524304  0.44445209     0.28600
H1471       H  0.27127514  0.76905025  0.42789686     0.19200
H1472       H  0.18398946  0.67848212  0.41996645     0.19200
C1473       C  0.24491019  0.91852146  0.70973116    -0.06600
C1474       C  0.22843605  0.90398523  0.73713039    -0.17700
C1475       C  0.19611648  0.91695449  0.74709534     0.10600
C1476       C  0.17901931  0.94371361  0.72822047    -0.06500
C1477       C  0.19500920  0.95687292  0.69994012    -0.17800
C1478       C  0.22829930  0.94630440  0.69212876     0.10600
S1479       S  0.17815830  0.89901154  0.78437647    -0.32700
S1480       S  0.24819854  0.96865721  0.65824120    -0.32700
H1481       H  0.28253816  0.95909499  0.66828728     0.28600
H1482       H  0.14362474  0.90901640  0.77590010     0.28600
H1483       H  0.24002695  0.88169655  0.74987730     0.19200
H1484       H  0.18314541  0.97859427  0.68635004     0.19200
C1485       C  0.25963068  0.92279015  0.57359709    -0.06600
C1486       C  0.28746016  0.94326579  0.56496575    -0.17700
C1487       C  0.28257116  0.97729159  0.55440404     0.10600
C1488       C  0.24898544  0.99241088  0.55205454    -0.06500
C1489       C  0.22146384  0.97308333  0.56330693    -0.17800
C1490       C  0.22616192  0.93866943  0.57334559     0.10600
S1491       S  0.31988870  0.99893857  0.54028861    -0.32700
S1492       S  0.18784515  0.91624180  0.58315095    -0.32700
H1493       H  0.19508969  0.88878565  0.56132478     0.28600
H1494       H  0.30626276  0.03206979  0.54480567     0.28600
H1495       H  0.31362546  0.93261566  0.56576308     0.19200
H1496       H  0.19530053  0.98367829  0.56042272     0.19200
C1497       C  0.39297369  0.81488755  0.52881871    -0.06600
C1498       C  0.42722668  0.82451860  0.52481811    -0.17700
C1499       C  0.44456900  0.81595400  0.49545012     0.10600
C1500       C  0.42805154  0.79589002  0.46979458    -0.06500
C1501       C  0.39262751  0.78965599  0.47191482    -0.17800
C1502       C  0.37491305  0.79897471  0.50107124     0.10600
S1503       S  0.48934898  0.82756651  0.49392713    -0.32700
S1504       S  0.33049947  0.78659068  0.50272155    -0.32700
H1505       H  0.33475929  0.77338176  0.53593859     0.28600
H1506       H  0.49157134  0.82279719  0.45858505     0.28600
H1507       H  0.44093263  0.83815423  0.54511874     0.19200
H1508       H  0.37972547  0.77405897  0.45263314     0.19200
C1509       C  0.43473999  0.79012694  0.78467063    -0.06600
C1510       C  0.45134815  0.81060169  0.76147815    -0.17700
C1511       C  0.43573608  0.81950021  0.72974909     0.10600
C1512       C  0.40081603  0.81127241  0.72188572    -0.06500
C1513       C  0.38276275  0.79370739  0.74643797    -0.17800
C1514       C  0.39968258  0.78199315  0.77712115     0.10600
S1515       S  0.46181016  0.84011865  0.69924371    -0.32700
S1516       S  0.37605751  0.75475628  0.80408412    -0.32700
H1517       H  0.39401416  0.76333809  0.83464982     0.28600
H1518       H  0.48920200  0.84908502  0.72215713     0.28600
H1519       H  0.47842204  0.81614739  0.76668472     0.19200
H1520       H  0.35579094  0.78787588  0.74107244     0.19200
C1521       C  0.25903653  0.75284616  0.58937360    -0.06600
C1522       C  0.28732768  0.73200996  0.58062380    -0.17700
C1523       C  0.28264097  0.69912080  0.56796089     0.10600
C1524       C  0.24884750  0.68643167  0.56373883    -0.06500
C1525       C  0.22117163  0.70532739  0.57678488    -0.17800
C1526       C  0.22570911  0.73859885  0.58893147     0.10600
S1527       S  0.32013502  0.67646662  0.55293165    -0.32700
S1528       S  0.18729663  0.76255079  0.59943542    -0.32700
H1529       H  0.19664153  0.79254898  0.58296806     0.28600
H1530       H  0.30536187  0.64411327  0.55241221     0.28600
H1531       H  0.31330724  0.74179466  0.58265635     0.19200
H1532       H  0.19508056  0.69604169  0.57301966     0.19200
C1533       C  0.07312225  0.21461010  0.33741117    -0.06600
C1534       C  0.08362917  0.24174983  0.31715005    -0.17700
C1535       C  0.10194247  0.23605171  0.28756340     0.10600
C1536       C  0.10989653  0.20233331  0.27735458    -0.06500
C1537       C  0.10191498  0.17539695  0.29913541    -0.17800
C1538       C  0.08387930  0.18116179  0.32886696     0.10600
S1539       S  0.11381375  0.27284127  0.26373360    -0.32700
S1540       S  0.07212469  0.14450154  0.35287189    -0.32700
H1541       H  0.07673726  0.16027181  0.38480011     0.28600
H1542       H  0.14581400  0.25882340  0.25426908     0.28600
H1543       H  0.07524496  0.26754731  0.32311468     0.19200
H1544       H  0.10838922  0.14935722  0.29218803     0.19200
C1545       C  0.06275592  0.23045345  0.02420018    -0.06600
C1546       C  0.07027851  0.19550347  0.02878831    -0.17700
C1547       C  0.08819563  0.18308742  0.05856404     0.10600
C1548       C  0.09896509  0.20597839  0.08472948    -0.06500
C1549       C  0.09318128  0.24107505  0.07902875    -0.17800
C1550       C  0.07590001  0.25345335  0.04912346     0.10600
S1551       S  0.09391207  0.13760061  0.06273031    -0.32700
S1552       S  0.06995595  0.29903959  0.04474771    -0.32700
H1553       H  0.06529443  0.29908750  0.00898781     0.28600
H1554       H  0.09002913  0.13690333  0.09812055     0.28600
H1555       H  0.05975821  0.17751514  0.01032872     0.19200
H1556       H  0.10267963  0.25918752  0.09788690     0.19200
C1557       C  0.26276428  0.89225646  0.29209570    -0.06600
C1558       C  0.26279095  0.90254992  0.25777425    -0.17700
C1559       C  0.29056006  0.92017686  0.24486035     0.10600
C1560       C  0.31916097  0.92933024  0.26671031    -0.06500
C1561       C  0.32056252  0.91680312  0.30028235    -0.17800
C1562       C  0.29311105  0.89813497  0.31309692     0.10600
S1563       S  0.28677941  0.93276062  0.20059844    -0.32700
S1564       S  0.29626487  0.88516318  0.35726803    -0.32700
H1565       H  0.33197420  0.89053299  0.36269642     0.28600
H1566       H  0.32236561  0.93767268  0.19717857     0.28600
H1567       H  0.24059433  0.89734502  0.24080293     0.19200
H1568       H  0.34184799  0.92424470  0.31741642     0.19200
C1569       C  0.30951625  0.05244793  0.25105816    -0.06600
C1570       C  0.30569395  0.07238213  0.22134089    -0.17700
C1571       C  0.27467569  0.09124134  0.21310848     0.10600
C1572       C  0.24534786  0.08828967  0.23334469    -0.06500
C1573       C  0.25038638  0.07123169  0.26469617    -0.17800
C1574       C  0.28244196  0.05502743  0.27441364     0.10600
S1575       S  0.27370726  0.11751705  0.17550938    -0.32700
S1576       S  0.28664940  0.03586669  0.31626706    -0.32700
H1577       H  0.32313150  0.03494845  0.31829152     0.28600
H1578       H  0.24975525  0.14178191  0.18730834     0.28600
H1579       H  0.32611887  0.07175473  0.20340081     0.19200
H1580       H  0.22892170  0.06956267  0.28130899     0.19200
C1581       C  0.23825183  0.01295917  0.04592276    -0.06600
C1582       C  0.21163845  0.03625842  0.03504237    -0.17700
C1583       C  0.20356990  0.06544127  0.05401312     0.10600
C1584       C  0.22146178  0.07138829  0.08553554    -0.06500
C1585       C  0.24762411  0.04746823  0.09678205    -0.17800
C1586       C  0.25644984  0.01876054  0.07717939     0.10600
S1587       S  0.16962655  0.09353010  0.03697449    -0.32700
S1588       S  0.29158268  0.99023163  0.09156609    -0.32700
H1589       H  0.30301200  0.00977858  0.11977869     0.28600
H1590       H  0.18991403  0.12270427  0.04020004     0.28600
H1591       H  0.19824128  0.03257364  0.01045875     0.19200
H1592       H  0.26107671  0.05119546  0.12129980     0.19200
C1593       C  0.23238983  0.31407500  0.06210585    -0.06600
C1594       C  0.25604924  0.28679538  0.07098188    -0.17700
C1595       C  0.24709566  0.25885199  0.09140912     0.10600
C1596       C  0.21340790  0.25723265  0.10368901    -0.06500
C1597       C  0.19036556  0.28524664  0.09588852    -0.17800
C1598       C  0.19921683  0.31308646  0.07549570     0.10600
S1599       S  0.27983655  0.22634935  0.10096798    -0.32700
S1600       S  0.16673575  0.34574496  0.06453918    -0.32700
H1601       H  0.13937015  0.33154095  0.08158655     0.28600
H1602       H  0.27053357  0.22140004  0.13476693     0.28600
H1603       H  0.28166184  0.28672509  0.06091799     0.19200
H1604       H  0.16443411  0.28492286  0.10504713     0.19200
C1605       C  0.06836845  0.89892658  0.30919959    -0.06600
C1606       C  0.06927262  0.93164938  0.32326866    -0.17700
C1607       C  0.03998455  0.95357551  0.32090508     0.10600
C1608       C  0.00980477  0.94399409  0.30128127    -0.06500
C1609       C  0.00798051  0.91027990  0.28975056    -0.17800
C1610       C  0.03647871  0.88737989  0.29450740     0.10600
S1611       S  0.04312434  0.99409468  0.34249768    -0.32700
S1612       S  0.03217419  0.84397854  0.28002846    -0.32700
H1613       H  0.99624789  0.84570192  0.27224473     0.28600
H1614       H  0.00718279  0.00061218  0.34299849     0.28600
H1615       H  0.09277857  0.94004320  0.33654411     0.19200
H1616       H  0.98509134  0.90252231  0.27504616     0.19200
C1617       C  0.00622205  0.04923086  0.23666871    -0.06600
C1618       C  0.01690981  0.04300013  0.20352283    -0.17700
C1619       C  0.04894657  0.05448066  0.19230693     0.10600
C1620       C  0.07222058  0.07219193  0.21503960    -0.06500
C1621       C  0.06007593  0.08080382  0.24731927    -0.17800
C1622       C  0.02772540  0.06988805  0.25806197     0.10600
S1623       S  0.05920142  0.04602305  0.14861299    -0.32700
S1624       S  0.01625507  0.08083915  0.30071796    -0.32700
H1625       H  0.98053517  0.07565293  0.29520413     0.28600
H1626       H  0.02748448  0.03169917  0.13794240     0.28600
H1627       H  0.00118058  0.02674121  0.18713589     0.19200
H1628       H  0.07632749  0.09537580  0.26489442     0.19200
C1629       C  0.48699932  0.94530826  0.72734856    -0.06600
C1630       C  0.46384117  0.92576648  0.74534645    -0.17700
C1631       C  0.43076130  0.91836158  0.73146646     0.10600
C1632       C  0.42095796  0.92848558  0.69782615    -0.06500
C1633       C  0.44402284  0.94784775  0.67977629    -0.17800
C1634       C  0.47639621  0.95675762  0.69421790     0.10600
S1635       S  0.40217468  0.89567285  0.75780484    -0.32700
S1636       S  0.50182690  0.98509355  0.67010235    -0.32700
H1637       H  0.53404086  0.97077568  0.68126476     0.28600
H1638       H  0.37151325  0.91078567  0.74337696     0.28600
H1639       H  0.47046418  0.91882128  0.77163249     0.19200
H1640       H  0.43725418  0.95496003  0.65356336     0.19200
C1641       C  0.29651365  0.07272738  0.90059770    -0.06600
C1642       C  0.26215566  0.06358802  0.90527184    -0.17700
C1643       C  0.25431109  0.03267917  0.92071878     0.10600
C1644       C  0.28119835  0.01025182  0.93344570    -0.06500
C1645       C  0.31555161  0.01835726  0.92728032    -0.17800
C1646       C  0.32343693  0.04892529  0.91067725     0.10600
S1647       S  0.20926815  0.02441578  0.92655306    -0.32700
S1648       S  0.36851516  0.05702389  0.90529179    -0.32700
H1649       H  0.36538951  0.09217655  0.91151830     0.28600
H1650       H  0.21348590  0.98869781  0.92734022     0.28600
H1651       H  0.24102404  0.08051443  0.89634358     0.19200
H1652       H  0.33652871  0.00205524  0.93769207     0.19200
C1653       C  0.28030608  0.26382993  0.90033543    -0.06600
C1654       C  0.30612459  0.28594949  0.91267143    -0.17700
C1655       C  0.29835568  0.31309518  0.93442354     0.10600
C1656       C  0.26371244  0.31897219  0.94328689    -0.06500
C1657       C  0.23761881  0.29842371  0.92885039    -0.17800
C1658       C  0.24546479  0.27115910  0.90738472     0.10600
S1659       S  0.33423512  0.33770014  0.95117503    -0.32700
S1660       S  0.20994417  0.24660768  0.89006303    -0.32700
H1661       H  0.22498336  0.23940871  0.85886382     0.28600
H1662       H  0.31919814  0.35058367  0.98046516     0.28600
H1663       H  0.33294286  0.28083339  0.90701651     0.19200
H1664       H  0.21103730  0.30266054  0.93577534     0.19200
C1665       C  0.41234724  0.21279104  0.93932463    -0.06600
C1666       C  0.41062155  0.24721473  0.94910471    -0.17700
C1667       C  0.42229950  0.25741896  0.98198597     0.10600
C1668       C  0.43676173  0.23300975  0.00557044    -0.06500
C1669       C  0.43428078  0.19841984  0.99719546    -0.17800
C1670       C  0.42160050  0.18810472  0.96480802     0.10600
S1671       S  0.42153773  0.30232669  0.99156732    -0.32700
S1672       S  0.41791499  0.14296847  0.95758697    -0.32700
H1673       H  0.38705922  0.14634341  0.93720086     0.28600
H1674       H  0.42434016  0.29826610  0.02721056     0.28600
H1675       H  0.40179771  0.26643032  0.93062141     0.19200
H1676       H  0.44489195  0.17933786  0.01502171     0.19200
C1677       C  0.17906218  0.05289300  0.78044136    -0.06600
C1678       C  0.18555069  0.07946643  0.75768908    -0.17700
C1679       C  0.21628923  0.09815568  0.76100772     0.10600
C1680       C  0.24183689  0.08950502  0.78684357    -0.06500
C1681       C  0.23528643  0.06291293  0.80925620    -0.17800
C1682       C  0.20427531  0.04539059  0.80698354     0.10600
S1683       S  0.22168584  0.13253804  0.73147842    -0.32700
S1684       S  0.19938123  0.01150516  0.83729419    -0.32700
H1685       H  0.16293985  0.01200573  0.83479634     0.28600
H1686       H  0.25793696  0.13380514  0.73618336     0.28600
H1687       H  0.16744396  0.08454440  0.73623015     0.19200
H1688       H  0.25380161  0.05701741  0.83020791     0.19200
C1689       C  0.43079365  0.08393298  0.79677570    -0.06600
C1690       C  0.43736855  0.05733864  0.82019214    -0.17700
C1691       C  0.46832803  0.03784309  0.82027943     0.10600
C1692       C  0.49344385  0.04442688  0.79611699    -0.06500
C1693       C  0.48748568  0.07199478  0.77370803    -0.17800
C1694       C  0.45647090  0.09152665  0.77351472     0.10600
S1695       S  0.47327914  0.00278720  0.84994521    -0.32700
S1696       S  0.44882678  0.12450345  0.74164361    -0.32700
H1697       H  0.47982492  0.11947973  0.72477982     0.28600
H1698       H  0.50949965  0.99936190  0.84848386     0.28600
H1699       H  0.41855614  0.05205698  0.83894985     0.19200
H1700       H  0.50577742  0.07612784  0.75418158     0.19200
C1701       C  0.43157761  0.24457965  0.70988627    -0.06600
C1702       C  0.43084373  0.26810265  0.73714393    -0.17700
C1703       C  0.41495540  0.26068217  0.76767120     0.10600
C1704       C  0.39749726  0.22981507  0.77095022    -0.06500
C1705       C  0.39400975  0.20854607  0.74209787    -0.17800
C1706       C  0.41105107  0.21544015  0.71181301     0.10600
S1707       S  0.42105213  0.28987936  0.80277835    -0.32700
S1708       S  0.40996733  0.18490914  0.67744172    -0.32700
H1709       H  0.38643797  0.16282086  0.69163004     0.28600
H1710       H  0.39147965  0.28060585  0.81972550     0.28600
H1711       H  0.44646235  0.29061621  0.73624271     0.19200
H1712       H  0.38064381  0.18480980  0.74444565     0.19200
C1713       C  0.71591115  0.23008946  0.90975738    -0.06600
C1714       C  0.69070072  0.20534346  0.91443023    -0.17700
C1715       C  0.69828338  0.17567506  0.93319935     0.10600
C1716       C  0.73179374  0.17024244  0.94797117    -0.06500
C1717       C  0.75784762  0.19333505  0.94090270    -0.17800
C1718       C  0.75028557  0.22326388  0.92204520     0.10600
S1719       S  0.66326721  0.14760603  0.94061736    -0.32700
S1720       S  0.78445031  0.25248318  0.91451374    -0.32700
H1721       H  0.81191059  0.23214750  0.92891453     0.28600
H1722       H  0.68378235  0.11757143  0.94085994     0.28600
H1723       H  0.66425377  0.20974934  0.90465353     0.19200
H1724       H  0.78350822  0.18928425  0.95281731     0.19200
C1725       C  0.58161461  0.27492790  0.94553609    -0.06600
C1726       C  0.57434106  0.30197606  0.96783289    -0.17700
C1727       C  0.56205324  0.29631269  0.00025292     0.10600
C1728       C  0.55714767  0.26269487  0.01144178    -0.06500
C1729       C  0.56866408  0.23554607  0.99084335    -0.17800
C1730       C  0.57984664  0.24123400  0.95774534     0.10600
S1731       S  0.54770530  0.33307101  0.02374331    -0.32700
S1732       S  0.58658922  0.20461402  0.93099385    -0.32700
H1733       H  0.57248121  0.21976311  0.90078811     0.28600
H1734       H  0.55409637  0.31830566  0.05606286     0.28600
H1735       H  0.57634298  0.32803974  0.95911858     0.19200
H1736       H  0.56407054  0.20959717  0.99856884     0.19200
C1737       C  0.73253393  0.41196613  0.80067770    -0.06600
C1738       C  0.73756987  0.44006727  0.82217767    -0.17700
C1739       C  0.76614451  0.46065907  0.81955685     0.10600
C1740       C  0.79035047  0.45346128  0.79452473    -0.06500
C1741       C  0.78494811  0.42572302  0.77246097    -0.17800
C1742       C  0.75614568  0.40508782  0.77519739     0.10600
S1743       S  0.76966124  0.49670355  0.84797592    -0.32700
S1744       S  0.75023532  0.37066563  0.74533108    -0.32700
H1745       H  0.71399028  0.37001354  0.74729574     0.28600
H1746       H  0.80580643  0.49943753  0.84690946     0.28600
H1747       H  0.72007963  0.44487739  0.84250347     0.19200
H1748       H  0.80215404  0.42130171  0.75183589     0.19200
C1749       C  0.55013238  0.39988259  0.79726482    -0.06600
C1750       C  0.53117952  0.38673189  0.76890844    -0.17700
C1751       C  0.49766580  0.39860759  0.75986518     0.10600
C1752       C  0.48258474  0.42508195  0.77877655    -0.06500
C1753       C  0.50066795  0.43708180  0.80818753    -0.17800
C1754       C  0.53421278  0.42484191  0.81754341     0.10600
S1755       S  0.47627665  0.38100790  0.72222643    -0.32700
S1756       S  0.55487419  0.44113818  0.85601149    -0.32700
H1757       H  0.58584658  0.44858463  0.84054315     0.28600
H1758       H  0.44244560  0.38974041  0.73132332     0.28600
H1759       H  0.54241479  0.36639905  0.75395735     0.19200
H1760       H  0.48973879  0.45817444  0.82229487     0.19200
C1761       C  0.55756883  0.24278526  0.71485441    -0.06600
C1762       C  0.57752893  0.27217361  0.71724214    -0.17700
C1763       C  0.59592808  0.28064832  0.74798256     0.10600
C1764       C  0.59300594  0.26025436  0.77745887    -0.06500
C1765       C  0.57659817  0.22895674  0.77381610    -0.17800
C1766       C  0.56038361  0.21937896  0.74256291     0.10600
S1767       S  0.62045425  0.31917066  0.75015141    -0.32700
S1768       S  0.54013516  0.17843997  0.74060008    -0.32700
H1769       H  0.53775690  0.17660620  0.70477294     0.28600
H1770       H  0.61765811  0.32661494  0.71505619     0.28600
H1771       H  0.57600750  0.29011261  0.69624238     0.19200
H1772       H  0.57502844  0.21253589  0.79584173     0.19200
C1773       C  0.70396198  0.48600502  0.94790060    -0.06600
C1774       C  0.67025926  0.47309435  0.94469174    -0.17700
C1775       C  0.66346810  0.44142247  0.92877587     0.10600
C1776       C  0.69074751  0.42167094  0.91517597    -0.06500
C1777       C  0.72418322  0.43509962  0.91736912    -0.17800
C1778       C  0.73097029  0.46660297  0.93324120     0.10600
S1779       S  0.62002379  0.42600735  0.92959159    -0.32700
S1780       S  0.77558895  0.47911919  0.93737840    -0.32700
H1781       H  0.76822158  0.51424984  0.94025107     0.28600
H1782       H  0.62999201  0.39138434  0.93285099     0.28600
H1783       H  0.64954960  0.48630638  0.95734765     0.19200
H1784       H  0.74538951  0.42091781  0.90647508     0.19200
C1785       C  0.90677057  0.28707732  0.07894146    -0.06600
C1786       C  0.91366752  0.25261291  0.07149728    -0.17700
C1787       C  0.93080729  0.24257878  0.04230992     0.10600
C1788       C  0.94182167  0.26734519  0.01916241    -0.06500
C1789       C  0.93323176  0.30176072  0.02542654    -0.00200
C1790       C  0.91618988  0.31185912  0.05497530     0.10600
S1791       S  0.94099307  0.19767700  0.03782773    -0.32700
S1792       S  0.91063640  0.35688883  0.06226732    -0.32700
H1793       H  0.91688571  0.35489864  0.09778856     0.28600
H1794       H  0.94624439  0.19849424  0.00267120     0.28600
H1795       H  0.90586621  0.23308073  0.08885036     0.19200
H1796       H  0.94267539  0.32117623  0.00886389     0.19200
C1797       C  0.91086450  0.26890489  0.27021909    -0.06600
C1798       C  0.91720912  0.29052659  0.29842787    -0.17700
C1799       C  0.93724524  0.27949334  0.32751002     0.10600
C1800       C  0.95037548  0.24565777  0.32928974    -0.06500
C1801       C  0.94164474  0.22328398  0.30235753    -0.17800
C1802       C  0.92257730  0.23447450  0.27282780     0.10600
S1803       S  0.94894299  0.30972812  0.36049824    -0.32700
S1804       S  0.91361698  0.20430170  0.23891558    -0.32700
H1805       H  0.93583092  0.17781888  0.25165885     0.28600
H1806       H  0.92513083  0.33564515  0.34961793     0.28600
H1807       H  0.90809908  0.31679090  0.29690134     0.19200
H1808       H  0.95179147  0.19730906  0.30370349     0.19200
C1809       C  0.94695215  0.40529244  0.22328452    -0.06600
C1810       C  0.96837921  0.41761491  0.19829446    -0.17700
C1811       C  0.00177594  0.42903064  0.20655044     0.10600
C1812       C  0.01468067  0.42873569  0.24076143    -0.06500
C1813       C  0.99507559  0.41260012  0.26516500    -0.17800
C1814       C  0.96133986  0.40135717  0.25699164     0.10600
S1815       S  0.02474882  0.44843248  0.17308063    -0.32700
S1816       S  0.93699227  0.38611964  0.29154918    -0.32700
H1817       H  0.90598124  0.40347068  0.28111248     0.28600
H1818       H  0.05790273  0.43965324  0.18712998     0.28600
H1819       H  0.95859194  0.41951147  0.17200257     0.19200
H1820       H  0.00424133  0.41289873  0.29170474     0.19200
C1821       C  0.78769054  0.24046036  0.09648162    -0.06600
C1822       C  0.80953399  0.22246825  0.07478750    -0.17700
C1823       C  0.79985225  0.19177348  0.05936857     0.10600
C1824       C  0.76697551  0.17857491  0.06468556    -0.06500
C1825       C  0.74465295  0.19662616  0.08603077    -0.17800
C1826       C  0.75493691  0.22698830  0.10250866     0.10600
S1827       S  0.82912975  0.17022885  0.03140902    -0.32700
S1828       S  0.72591236  0.24642195  0.13182019    -0.32700
H1829       H  0.73691917  0.27990392  0.12758978     0.28600
H1830       H  0.85776634  0.19095446  0.03838886     0.28600
H1831       H  0.83511749  0.23202716  0.07098832     0.19200
H1832       H  0.71880339  0.18744702  0.08920772     0.19200
C1833       C  0.75747837  0.48457392  0.05992766    -0.06600
C1834       C  0.79075082  0.47237339  0.05231991    -0.17700
C1835       C  0.80474046  0.44166983  0.06612875     0.10600
C1836       C  0.78552033  0.42246833  0.08870626    -0.06500
C1837       C  0.75250335  0.43505433  0.09677288    -0.17800
C1838       C  0.73824384  0.46539127  0.08250318     0.10600
S1839       S  0.84758383  0.42880608  0.05452645    -0.32700
S1840       S  0.69477477  0.47762904  0.09313495    -0.32700
H1841       H  0.69668868  0.51215797  0.08411432     0.28600
H1842       H  0.84106458  0.39377665  0.05462492     0.28600
H1843       H  0.80510912  0.48584012  0.03372036     0.19200
H1844       H  0.73796259  0.42149431  0.11514057     0.19200
C1845       C  0.77540652  0.39362591  0.23190792    -0.06600
C1846       C  0.77203656  0.41144770  0.26256143    -0.17700
C1847       C  0.74034982  0.42724776  0.27069580     0.10600
C1848       C  0.71148857  0.42766892  0.24667026    -0.06500
C1849       C  0.71395062  0.40723741  0.21749760    -0.17800
C1850       C  0.74511202  0.38964597  0.21037787     0.10600
S1851       S  0.73939477  0.44996408  0.31066142    -0.32700
S1852       S  0.74530484  0.36512144  0.17162558    -0.32700
H1853       H  0.76906897  0.34008670  0.18436594     0.28600
H1854       H  0.70307095  0.45137404  0.31200415     0.28600
H1855       H  0.79465890  0.41445750  0.27961452     0.19200
H1856       H  0.69242578  0.40712114  0.19874205     0.19200
C1857       C  0.89134724  0.69967783  0.24392417    -0.06600
C1858       C  0.90801953  0.73105700  0.24521694    -0.17700
C1859       C  0.92565395  0.74310197  0.21741605     0.10600
C1860       C  0.92961137  0.72227686  0.18820646    -0.06500
C1861       C  0.91025829  0.69267608  0.18532781    -0.17800
C1862       C  0.88985005  0.68215398  0.21196538     0.10600
S1863       S  0.94432623  0.78471276  0.22136877    -0.32700
S1864       S  0.86260761  0.64643476  0.20284849    -0.32700
H1865       H  0.83283549  0.66279199  0.21506586     0.28600
H1866       H  0.94612039  0.79031557  0.18610856     0.28600
H1867       H  0.90771906  0.74630120  0.26821007     0.19200
H1868       H  0.91198578  0.67697725  0.16273486     0.19200
C1869       C  0.90300645  0.67363180  0.43736231    -0.06600
C1870       C  0.93867340  0.66658393  0.43731882    -0.17700
C1871       C  0.96038722  0.67268176  0.46643627     0.10600
C1872       C  0.94707968  0.69002572  0.49501818    -0.06500
C1873       C  0.91103653  0.69373630  0.49645538    -0.17800
C1874       C  0.88883538  0.68425150  0.46856318     0.10600
S1875       S  0.00561968  0.65961834  0.46651168    -0.32700
S1876       S  0.84260356  0.68726770  0.47290420    -0.32700
H1877       H  0.84351319  0.69630669  0.50760262     0.28600
H1878       H  0.00353712  0.64139860  0.43565076     0.28600
H1879       H  0.94949324  0.65628705  0.41445564     0.19200
H1880       H  0.90040993  0.70594112  0.51849953     0.19200
C1881       C  0.00809995  0.54273546  0.28499482    -0.06600
C1882       C  0.98731773  0.56028569  0.25990143    -0.17700
C1883       C  0.95255084  0.56987521  0.26522241     0.10600
C1884       C  0.93801309  0.56290139  0.29691078    -0.06500
C1885       C  0.96004163  0.54829643  0.32289859    -0.17800
C1886       C  0.99443378  0.53834806  0.31738647     0.10600
S1887       S  0.92747320  0.58714420  0.22917568    -0.32700
S1888       S  0.01818442  0.51571134  0.35139410    -0.32700
H1889       H  0.05124822  0.52156914  0.33957256     0.28600
H1890       H  0.89768781  0.56857463  0.23508316     0.28600
H1891       H  0.99683649  0.56273351  0.23452626     0.19200
H1892       H  0.95014265  0.54366086  0.34777799     0.19200
C1893       C  0.78668858  0.54594074  0.42217658    -0.06600
C1894       C  0.76088020  0.52336432  0.41037310    -0.17700
C1895       C  0.75076085  0.49568250  0.43005380     0.10600
C1896       C  0.76750701  0.48918359  0.46232559    -0.06500
C1897       C  0.79413742  0.51106102  0.47364152    -0.17800
C1898       C  0.80406713  0.53886911  0.45399623     0.10600
S1899       S  0.71555923  0.47065193  0.41253063    -0.32700
S1900       S  0.83964578  0.56371592  0.47059941    -0.32700
H1901       H  0.85530547  0.56679977  0.43918690     0.28600
H1902       H  0.70479799  0.45656890  0.44294732     0.28600
H1903       H  0.74785148  0.52773418  0.38561337     0.19200
H1904       H  0.80672333  0.50693913  0.49863852     0.19200
C1905       C  0.75625585  0.78825312  0.45518852    -0.06600
C1906       C  0.73366201  0.76438600  0.43944535    -0.17700
C1907       C  0.74616229  0.73580773  0.42138639     0.10600
C1908       C  0.78216140  0.73095180  0.41801322    -0.06500
C1909       C  0.80437969  0.75530577  0.43326299    -0.17800
C1910       C  0.79215815  0.78297437  0.45207955     0.10600
S1911       S  0.71505976  0.70751769  0.40204619    -0.32700
S1912       S  0.82416101  0.80933952  0.47315766    -0.32700
H1913       H  0.80831852  0.80990855  0.50465907     0.28600
H1914       H  0.73108411  0.67807166  0.41666623     0.28600
H1915       H  0.70599585  0.76746139  0.44222909     0.19200
H1916       H  0.83215876  0.75241716  0.43109252     0.19200
C1917       C  0.76664460  0.57934034  0.27406389    -0.06600
C1918       C  0.73880636  0.57840839  0.29573671    -0.17700
C1919       C  0.70702797  0.56423901  0.28516341     0.10600
C1920       C  0.70239608  0.55070201  0.25192689    -0.06500
C1921       C  0.72870819  0.55615865  0.22887322    -0.17800
C1922       C  0.76098197  0.56927879  0.23978105     0.10600
S1923       S  0.67567205  0.55878265  0.31696915    -0.32700
S1924       S  0.79502603  0.56833970  0.20996859    -0.32700
H1925       H  0.81590215  0.59246023  0.22676646     0.28600
H1926       H  0.64754638  0.56979851  0.29537284     0.28600
H1927       H  0.74274916  0.58627601  0.32207622     0.19200
H1928       H  0.72595003  0.54553942  0.20342191     0.19200
C1929       C  0.54467723  0.55661931  0.70211323    -0.06600
C1930       C  0.52855003  0.53675097  0.67655913    -0.17700
C1931       C  0.49693655  0.52131008  0.68194143     0.10600
C1932       C  0.48084207  0.52666463  0.71299359    -0.06500
C1933       C  0.49647169  0.54754274  0.73796669    -0.17800
C1934       C  0.52851705  0.56192715  0.73309349     0.10600
S1935       S  0.47762314  0.49374373  0.64989262    -0.32700
S1936       S  0.54935426  0.58662709  0.76672004    -0.32700
H1937       H  0.52523196  0.58058064  0.79157659     0.28600
H1938       H  0.50286807  0.49777362  0.62569097     0.28600
H1939       H  0.54015856  0.53434832  0.65209340     0.19200
H1940       H  0.48483925  0.55015215  0.76241347     0.19200
C1941       C  0.67198289  0.74360987  0.59354799    -0.06600
C1942       C  0.70808424  0.74352120  0.59147318    -0.17700
C1943       C  0.72456576  0.77110860  0.57796030     0.10600
C1944       C  0.70452320  0.79895878  0.56454506    -0.06500
C1945       C  0.66900696  0.80103543  0.56999878    -0.17800
C1946       C  0.65242735  0.77376502  0.58475636     0.10600
S1947       S  0.77098152  0.76775472  0.57481749    -0.32700
S1948       S  0.60639876  0.77883874  0.58950368    -0.32700
H1949       H  0.59795715  0.74664616  0.57680570     0.28600
H1950       H  0.77596301  0.80300493  0.57198333     0.28600
H1951       H  0.72366405  0.72140438  0.59976190     0.19200
H1952       H  0.65361617  0.82254538  0.55988127     0.19200
C1953       C  0.68279824  0.55214327  0.59690675    -0.06600
C1954       C  0.65955711  0.52750083  0.58449704    -0.17700
C1955       C  0.67133857  0.49701868  0.56928240     0.10600
C1956       C  0.70738893  0.48985548  0.56781933    -0.06500
C1957       C  0.73041627  0.51317880  0.58317906    -0.17800
C1958       C  0.71874844  0.54429830  0.59681333     0.10600
S1959       S  0.63892820  0.47021281  0.54950144    -0.32700
S1960       S  0.75042465  0.57412216  0.61300769    -0.32700
H1961       H  0.77923862  0.55143628  0.61362179     0.28600
H1962       H  0.65904588  0.44002742  0.54955304     0.28600
H1963       H  0.63193569  0.53270755  0.58530464     0.19200
H1964       H  0.75800827  0.50836845  0.58145563     0.19200
C1965       C  0.72586793  0.58663270  0.71239729    -0.06600
C1966       C  0.73795110  0.55695363  0.69671027    -0.17700
C1967       C  0.77066838  0.54298897  0.70532642     0.10600
C1968       C  0.79110116  0.55727604  0.73230227    -0.06500
C1969       C  0.77937016  0.58742679  0.74770254    -0.17800
C1970       C  0.74723024  0.60260718  0.73752708     0.10600
S1971       S  0.78377578  0.50477328  0.68325494    -0.32700
S1972       S  0.73456083  0.64186868  0.75784670    -0.32700
H1973       H  0.69871917  0.63900316  0.75088687     0.28600
H1974       H  0.81954773  0.50867337  0.68985528     0.28600
H1975       H  0.72237468  0.54544634  0.67627642     0.19200
H1976       H  0.79423582  0.59791997  0.76916836     0.19200
C1977       C  0.50543958  0.69745720  0.48316270    -0.06600
C1978       C  0.54054042  0.70180545  0.49222811    -0.17700
C1979       C  0.55497686  0.69011402  0.52374932     0.10600
C1980       C  0.53337434  0.67584541  0.54801951    -0.06500
C1981       C  0.49904116  0.66869646  0.53750000    -0.17800
C1982       C  0.48511230  0.67885918  0.50525652     0.10600
S1983       S  0.60126685  0.69294746  0.53055139    -0.32700
S1984       S  0.44031483  0.67065304  0.49337196    -0.32700
H1985       H  0.43437967  0.64895816  0.52088156     0.28600
H1986       H  0.60544508  0.66246621  0.54933869     0.28600
H1987       H  0.55644851  0.71571338  0.47531015     0.19200
H1988       H  0.48260921  0.65641081  0.55508914     0.19200
C1989       C  0.55317897  0.69630329  0.71694666    -0.06600
C1990       C  0.53082152  0.67611834  0.73522694    -0.17700
C1991       C  0.52201554  0.68423809  0.76856246     0.10600
C1992       C  0.53418757  0.71427799  0.78432948    -0.06500
C1993       C  0.55835414  0.73338681  0.76710396    -0.17800
C1994       C  0.56837072  0.72447570  0.73394316     0.10600
S1995       S  0.49140371  0.65762434  0.78841041    -0.32700
S1996       S  0.59757894  0.75138446  0.71242359    -0.32700
H1997       H  0.60742101  0.77118506  0.74099014     0.28600
H1998       H  0.50107953  0.66704196  0.82204481     0.28600
H1999       H  0.51953047  0.65385230  0.72330832     0.19200
H2000       H  0.56681052  0.75716348  0.77831350     0.19200
loop_ 
_geom_bond_atom_site_label_1 
_geom_bond_atom_site_label_2 
_geom_bond_distance 
_geom_bond_site_symmetry_2 
_ccdc_geom_bond_type 
O1           Ni7   1.890       .  S
O1           C22   1.257       .  A
O2          Ni25   1.885       .  S
O2           C11   1.263       .  A
O3           Ni7   1.882       .  S
O3          Ni25   1.874       .  S
O3          Ni19   1.927       .  S
O3           H26   0.968       .  S
C4           O21   1.291       .  A
C4           O13   1.278       .  A
C4         C1965   1.459       .  S
O5          Ni24   1.934       .  S
O5           C11   1.280       .  A
O6          Ni24   1.931       .  S
O6            C8   1.277       .  A
Ni7          O10   1.920       .  S
Ni7          O12   1.915       .  S
C8           O18   1.272       .  A
C8         C1953   1.496       .  S
O9          Ni25   1.943       .  S
O9           C15   1.284       .  A
O10          C15   1.280       .  A
C11        C1941   1.474       .  S
O12          C14   1.265       .  A
O13         Ni24   1.906       .  S
C14          O20   1.268       .  A
C14        C1989   1.505       .  S
C15        C1980   1.495       .  S
H16          O17   0.957       .  S
O17         Ni25   1.898       .  S
O17         Ni19   1.892       .  S
O17         Ni24   1.870       .  S
O18         Ni19   1.934       .  S
Ni19         O23   1.938       .  S
Ni19         O21   1.936       .  S
O20         Ni25   1.948       .  S
C22          O23   1.278       .  A
C22        C1929   1.456       .  S
O27         Ni33   1.906       .  S
O27          C48   1.267       .  A
O28         Ni51   1.886       .  S
O28          C37   1.261       .  A
O29         Ni33   1.891       .  S
O29         Ni51   1.887       .  S
O29         Ni45   1.931       .  S
O29          H52   0.966       .  S
C30          O47   1.298       .  A
C30          O39   1.280       .  A
C30        C1908   1.503       .  S
O31         Ni50   1.975       .  S
O31          C37   1.288       .  A
O32         Ni50   1.952       .  S
O32          C34   1.284       .  A
Ni33         O36   1.926       .  S
Ni33         O38   1.925       .  S
C34          O44   1.271       .  A
C34        C1869   1.500       .  S
O35         Ni51   1.945       .  S
O35          C41   1.280       .  A
O36          C41   1.279       .  A
C37        C1857   1.509       .  S
O38          C40   1.268       .  A
O39         Ni50   1.915       .  S
C40          O46   1.269       .  A
C40        C1917   1.488       .  S
C41        C1884   1.505       .  S
H42          O43   0.966       .  S
O43         Ni51   1.896       .  S
O43         Ni45   1.916       .  S
O43         Ni50   1.887       .  S
O44         Ni45   1.930       .  S
Ni45         O49   1.967       .  S
Ni45         O47   1.965       .  S
O46         Ni51   1.939       .  S
C48          O49   1.290       .  A
C48        C1893   1.498       .  S
O53         Ni59   1.898       .  S
O53          C74   1.265       .  A
O54         Ni77   1.899       .  S
O54          C63   1.268       .  A
O55         Ni59   1.889       .  S
O55         Ni77   1.893       .  S
O55         Ni71   1.927       .  S
O55          H78   0.965       .  S
C56          O73   1.296       .  A
C56          O65   1.278       .  A
C56        C1821   1.481       .  S
O57         Ni76   1.957       .  S
O57          C63   1.282       .  A
O58         Ni76   1.933       .  S
O58          C60   1.279       .  A
Ni59         O62   1.919       .  S
Ni59         O64   1.925       .  S
C60          O70   1.275       .  A
C60        C1785   1.502       .  S
O61         Ni77   1.943       .  S
O61          C67   1.279       .  A
O62          C67   1.277       .  A
C63        C1797   1.499       .  S
O64          C66   1.269       .  A
O65         Ni76   1.908       .  S
C66          O72   1.274       .  A
C66        C1845   1.501       .  S
C67        C1809   1.497       .  S
H68          O69   0.967       .  S
O69         Ni77   1.893       .  S
O69         Ni71   1.911       .  S
O69         Ni76   1.881       .  S
O70         Ni71   1.943       .  S
Ni71         O75   1.963       .  S
Ni71         O73   1.956       .  S
O72         Ni77   1.953       .  S
C74          O75   1.288       .  A
C74        C1836   1.484       .  S
C79         C591   1.543       .  S
C79          C80   1.428       .  A
C79          C84   1.443   1_554  A
C80          C81   1.417       .  A
C80          H85   1.082       .  S
C81        C1833   1.484       .  S
C81          C82   1.383       .  A
C82          C83   1.384   1_554  A
C82          H86   1.088       .  S
C83        C1773   1.504       .  S
C83          C84   1.429       .  A
C84          H87   1.081       .  S
C88        C1881   1.490       .  S
C88          C89   1.419       .  A
C88          C93   1.386       .  A
C89          C90   1.428       .  A
C89          H94   1.083       .  S
C90         C777   1.513       .  S
C90          C91   1.424       .  A
C91          C92   1.413       .  A
C91          H95   1.083       .  S
C92        C1812   1.486       .  S
C92          C93   1.386       .  A
C93          H96   1.087   1_455  S
O97        Ni103   1.885       .  S
O97         C118   1.260       .  A
O98        Ni121   1.865       .  S
O98         C107   1.260       .  A
O99        Ni103   1.883       .  S
O99        Ni121   1.867       .  S
O99        Ni115   1.916       .  S
O99         H122   0.965       .  S
C100        O117   1.288       .  A
C100        O109   1.279       .  A
C100       C1737   1.459       .  S
O101       Ni120   1.972       .  S
O101        C107   1.287       .  A
O102       Ni120   1.942       .  S
O102        C104   1.283       .  A
Ni103       O106   1.904       .  S
Ni103       O108   1.922       .  S
C104        O114   1.277       .  A
C104       C1776   1.506       .  S
O105       Ni121   1.958       .  S
O105        C111   1.286       .  A
O106        C111   1.277       .  A
C107       C1713   1.484       .  S
O108        C110   1.265       .  A
O109       Ni120   1.913       .  S
C110        O116   1.268       .  A
C110       C1764   1.495       .  S
C111       C1725   1.489       .  S
H112        O113   0.967       .  S
O113       Ni121   1.890       .  S
O113       Ni115   1.901       .  S
O113       Ni120   1.882       .  S
O114       Ni115   1.944       .  S
Ni115       O119   1.945       .  S
Ni115       O117   1.930       .  S
O116       Ni121   1.951       .  S
C118        O119   1.283       .  A
C118       C1749   1.473       .  S
O123       Ni129   1.896       .  S
O123        C144   1.263       .  A
O124       Ni147   1.878       .  S
O124        C133   1.263       .  A
O125       Ni129   1.881       .  S
O125       Ni147   1.871       .  S
O125       Ni141   1.927       .  S
O125        H148   0.965       .  S
C126        O143   1.297       .  A
C126        O135   1.277       .  A
C126       C1680   1.475       .  S
O127       Ni146   1.957       .  S
O127        C133   1.283       .  A
O128       Ni146   1.940       .  S
O128        C130   1.281       .  A
Ni129       O132   1.925       .  S
Ni129       O134   1.924       .  S
C130        O140   1.271       .  A
C130       C1641   1.499       .  S
O131       Ni147   1.944       .  S
O131        C137   1.281       .  A
O132        C137   1.280       .  A
C133       C1653   1.478       .  S
O134        C136   1.267       .  A
O135       Ni146   1.906       .  S
C136        O142   1.273       .  A
C136       C1704   1.496       .  S
C137       C1665   1.496       .  S
H138        O139   0.967       .  S
O139       Ni147   1.895       .  S
O139       Ni141   1.906       .  S
O139       Ni146   1.883       .  S
O140       Ni141   1.929       .  S
Ni141       O145   1.955       .  S
Ni141       O143   1.956       .  S
O142       Ni147   1.954       .  S
C144        O145   1.286       .  A
C144       C1689   1.484       .  S
C149       C1668   1.488       .  S
C149        C150   1.413       .  A
C149        C154   1.385       .  A
C150        C151   1.431       .  A
C150        H155   1.081       .  S
C151        C804   1.523       .  S
C151        C152   1.426       .  A
C152        C153   1.416       .  A
C152        H156   1.082       .  S
C153       C1728   1.488       .  S
C153        C154   1.389       .  A
C154        H157   1.087   1_554  S
C158       C1701   1.508       .  S
C158        C159   1.423       .  A
C158        C163   1.390       .  A
C159        C160   1.437       .  A
C159        H164   1.081       .  S
C160        C477   1.540       .  S
C160        C161   1.433       .  A
C161        C162   1.419       .  A
C161        H165   1.081       .  S
C162       C1761   1.503       .  S
C162        C163   1.390       .  A
C163        H166   1.085       .  S
C167        C628   1.521       .  S
C167        C168   1.425       .  A
C167        C172   1.431   1_565  A
C168        C169   1.416       .  A
C168        H173   1.082       .  S
C169       C1629   1.480       .  S
C169        C170   1.381       .  A
C170        C171   1.379   1_565  A
C170        H174   1.088       .  S
C171       C1692   1.483       .  S
C171        C172   1.414       .  A
C172        H175   1.082       .  S
C176       C1617   1.510   1_655  S
C176        C177   1.430       .  A
C176        C181   1.385   1_645  A
C177        C178   1.441   1_545  A
C177        H182   1.082       .  S
C178        C754   1.540       .  S
C178        C179   1.427       .  A
C179        C180   1.420       .  A
C179        H183   1.083       .  S
C180       C1608   1.498   1_655  S
C180        C181   1.391   1_655  A
C181        H184   1.086       .  S
C185        C786   1.529   1_554  S
C185        C186   1.415   1_554  A
C185        C190   1.440       .  A
C186        C187   1.405       .  A
C186        H191   1.083       .  S
C187       C1656   1.475       .  S
C187        C188   1.392   1_556  A
C188        C189   1.393       .  A
C188        H192   1.085       .  S
C189       C1593   1.522       .  S
C189        C190   1.435       .  A
C190        H193   1.082       .  S
C194        C763   1.523       .  S
C194        C195   1.432       .  A
C194        C199   1.425   1_556  A
C195        C196   1.419       .  A
C195        H200   1.082       .  S
C196       C1644   1.493   1_565  S
C196        C197   1.388   1_565  A
C197        C198   1.387   1_546  A
C197        H201   1.087       .  S
C198       C1581   1.487   1_565  S
C198        C199   1.413       .  A
C199        H202   1.083       .  S
C203        C795   1.545       .  S
C203        C204   1.440   1_565  A
C203        C208   1.433       .  A
C204        C205   1.430       .  A
C204        H209   1.082       .  S
C205       C1569   1.517       .  S
C205        C206   1.394   1_545  A
C206        C207   1.391       .  A
C206        H210   1.085       .  S
C207       C1560   1.504       .  S
C207        C208   1.421       .  A
C208        H211   1.082       .  S
C212        C736   1.522       .  S
C212        C213   1.430   1_455  A
C212        C217   1.426       .  A
C213        C214   1.422       .  A
C213        H218   1.083       .  S
C214       C1788   1.496   1_556  S
C214        C215   1.391   1_656  A
C215        C216   1.389       .  A
C215        H219   1.086       .  S
C216       C1545   1.492       .  S
C216        C217   1.412   1_554  A
C217        H220   1.083       .  S
C221        C727   1.518       .  S
C221        C222   1.425       .  A
C221        C226   1.425   1_455  A
C222        C223   1.415       .  A
C222        H227   1.082       .  S
C223       C1533   1.490       .  S
C223        C224   1.391       .  A
C224        C225   1.391   1_455  A
C224        H228   1.086       .  S
C225       C1800   1.494       .  S
C225        C226   1.415       .  A
C226        H229   1.083       .  S
O230       Ni236   1.896       .  S
O230        C251   1.265       .  A
O231       Ni254   1.884       .  S
O231        C240   1.264       .  A
O232       Ni236   1.888       .  S
O232       Ni254   1.876       .  S
O232       Ni248   1.941       .  S
O232        H255   0.966       .  S
C233        O250   1.304       .  A
C233        O242   1.280       .  A
C233       C1596   1.522       .  S
O234       Ni253   1.969       .  S
O234        C240   1.285       .  A
O235       Ni253   1.934       .  S
O235        C237   1.280       .  A
Ni236       O239   1.935       .  S
Ni236       O241   1.928       .  S
C237        O247   1.274       .  A
C237       C1548   1.495       .  S
O238       Ni254   1.965       .  S
O238        C244   1.287       .  A
O239        C244   1.279       .  A
C240       C1536   1.493       .  S
O241        C243   1.269       .  A
O242       Ni253   1.921       .  S
C243        O249   1.276       .  A
C243       C1572   1.511       .  S
C244       C1620   1.527       .  S
H245        O246   0.966       .  S
O246       Ni254   1.912       .  S
O246       Ni248   1.914       .  S
O246       Ni253   1.891       .  S
O247       Ni248   1.933       .  S
Ni248       O252   1.966       .  S
Ni248       O250   1.986       .  S
O249       Ni254   1.967       .  S
C251        O252   1.291       .  A
C251       C1584   1.493       .  S
O256       Ni262   1.875       .  S
O256        C277   1.259       .  A
O257       Ni280   1.897       .  S
O257        C266   1.265       .  A
O258       Ni262   1.894       .  S
O258       Ni280   1.886       .  S
O258       Ni274   1.924       .  S
O258        H281   0.967       .  S
C259        O276   1.289       .  A
C259        O268   1.274       .  A
C259       C1632   1.470       .  S
O260       Ni279   1.945       .  S
O260        C266   1.280       .  A
O261       Ni279   1.926       .  S
O261        C263   1.278       .  A
Ni262       O265   1.910       .  S
Ni262       O267   1.927       .  S
C263        O273   1.277       .  A
C263       C1512   1.490       .  S
O264       Ni280   1.935       .  S
O264        C270   1.282       .  A
O265        C270   1.273       .  A
C266       C1497   1.486       .  S
O267        C269   1.268       .  A
O268       Ni279   1.904       .  S
C269        O275   1.264       .  A
C269       C1485   1.511       .  S
C270       C1521   1.483       .  S
H271        O272   0.966       .  S
O272       Ni280   1.899       .  S
O272       Ni274   1.909       .  S
O272       Ni279   1.874       .  S
O273       Ni274   1.941       .  S
Ni274       O278   1.955       .  S
Ni274       O276   1.941       .  S
O275       Ni280   1.917       .  S
C277        O278   1.283       .  A
C277       C1473   1.468       .  S
O282       Ni288   1.891       .  S
O282        C303   1.265       .  A
O283       Ni306   1.910       .  S
O283        C292   1.270       .  A
O284       Ni288   1.883       .  S
O284       Ni306   1.891       .  S
O284       Ni300   1.918       .  S
O284        H307   0.964       .  S
C285        O302   1.299       .  A
C285        O294   1.277       .  A
C285       C1449   1.497       .  S
O286       Ni305   1.967       .  S
O286        C292   1.286       .  A
O287       Ni305   1.947       .  S
O287        C289   1.280       .  A
Ni288       O291   1.928       .  S
Ni288       O293   1.930       .  S
C289        O299   1.267       .  A
C289       C1605   1.488       .  S
O290       Ni306   1.928       .  S
O290        C296   1.277       .  A
O291        C296   1.277       .  A
C292       C1557   1.512       .  S
O293        C295   1.273       .  A
O294       Ni305   1.911       .  S
C295        O301   1.274       .  A
C295       C1461   1.506       .  S
C296       C1425   1.495       .  S
H297        O298   0.967       .  S
O298       Ni306   1.886       .  S
O298       Ni300   1.925       .  S
O298       Ni305   1.881       .  S
O299       Ni300   1.921       .  S
Ni300       O304   1.981       .  S
Ni300       O302   1.955       .  S
O301       Ni306   1.953       .  S
C303        O304   1.292       .  A
C303       C1437   1.502       .  S
C308        C687   1.535       .  S
C308        C309   1.431   1_655  A
C308        C313   1.435       .  A
C309        C310   1.425       .  A
C309        H314   1.082       .  S
C310       C1440   1.500       .  S
C310        C311   1.385   1_455  A
C311        C312   1.390       .  A
C311        H315   1.086       .  S
C312       C1872   1.506       .  S
C312        C313   1.423       .  A
C313        H316   1.083       .  S
C317       C1428   1.484   1_545  S
C317        C318   1.413       .  A
C317        C322   1.383       .  A
C318        C319   1.429       .  A
C318        H323   1.083       .  S
C319        C813   1.524       .  S
C319        C320   1.433       .  A
C320        C321   1.422       .  A
C320        H324   1.082       .  S
C321       C1488   1.492   1_545  S
C321        C322   1.382       .  A
C322        H325   1.088   1_545  S
C326       C1464   1.512       .  S
C326        C327   1.389       .  A
C326        C331   1.429       .  A
C327        C328   1.386       .  A
C327        H332   1.087       .  S
C328       C1524   1.472       .  S
C328        C329   1.401       .  A
C329        C330   1.416       .  A
C329        H333   1.083       .  S
C330        C556   1.521       .  S
C330        C331   1.442       .  A
C331        H334   1.082       .  S
C335        C824   1.523       .  S
C335        C336   1.430       .  A
C335        C340   1.421   1_655  A
C336        C337   1.421       .  A
C336        H341   1.082       .  S
C337       C1860   1.498       .  S
C337        C338   1.394       .  A
C338        C339   1.388   1_655  A
C338        H342   1.085       .  S
C339       C1452   1.489       .  S
C339        C340   1.411       .  A
C340        H343   1.082       .  S
C344        C844   1.518       .  S
C344        C345   1.432   1_565  A
C344        C349   1.425       .  A
C345        C346   1.419       .  A
C345        H350   1.082       .  S
C346       C1677   1.489       .  S
C346        C347   1.381   1_545  A
C347        C348   1.380       .  A
C347        H351   1.088       .  S
C348       C1476   1.475       .  S
C348        C349   1.408       .  A
C349        H352   1.083       .  S
C353        C835   1.515       .  S
C353        C354   1.418   1_554  A
C353        C358   1.428       .  A
C354        C355   1.406       .  A
C354        H359   1.081       .  S
C355       C1716   1.474       .  S
C355        C356   1.389   1_556  A
C356        C357   1.385       .  A
C356        H360   1.087       .  S
C357       C1824   1.485       .  S
C357        C358   1.416       .  A
C358        H361   1.082       .  S
C362        C521   1.515       .  S
C362        C363   1.425       .  A
C362        C367   1.428       .  A
C363        C364   1.413       .  A
C363        H368   1.083       .  S
C364       C1509   1.493       .  S
C364        C365   1.390       .  A
C365        C366   1.389       .  A
C365        H369   1.087       .  S
C366       C1992   1.494       .  S
C366        C367   1.421       .  A
C367        H370   1.082       .  S
C371        C741   1.497       .  S
C371        C372   1.420       .  A
C371        C376   1.420       .  A
C372        C373   1.411       .  A
C372        H377   1.083       .  S
C373       C1977   1.484       .  S
C373        C374   1.388       .  A
C374        C375   1.390       .  A
C374        H378   1.087       .  S
C375       C1500   1.484       .  S
C375        C376   1.410       .  A
C376        H379   1.083       .  S
C380        C714   1.511       .  S
C380        C381   1.413       .  A
C380        C385   1.431       .  A
C381        C382   1.400       .  A
C381        H386   1.082       .  S
C382       C1944   1.468       .  S
C382        C383   1.392       .  A
C383        C384   1.387       .  A
C383        H387   1.086       .  S
C384       C1905   1.500       .  S
C384        C385   1.422       .  A
C385        H388   1.082       .  S
C389        C705   1.494       .  S
C389        C390   1.417       .  A
C389        C394   1.421       .  A
C390        C391   1.403       .  A
C390        H395   1.083       .  S
C391       C1932   1.463       .  S
C391        C392   1.381       .  A
C392        C393   1.381       .  A
C392        H396   1.088       .  S
C393       C1752   1.469       .  S
C393        C394   1.406       .  A
C394        H397   1.083       .  S
C398        C698   1.491       .  S
C398        C399   1.418       .  A
C398        C403   1.417       .  A
C399        C400   1.407       .  A
C399        H404   1.083       .  S
C400       C1968   1.469       .  S
C400        C401   1.384       .  A
C401        C402   1.381       .  A
C401        H405   1.087       .  S
C402       C1740   1.470       .  S
C402        C403   1.404       .  A
C403        H406   1.083       .  S
C407        C768   1.527       .  S
C407        C408   1.428       .  A
C407        C412   1.429       .  A
C408        C409   1.420       .  A
C408        H413   1.083       .  S
C409       C1956   1.497       .  S
C409        C410   1.392       .  A
C410        C411   1.389       .  A
C410        H414   1.086       .  S
C411       C1896   1.496       .  S
C411        C412   1.420       .  A
C412        H415   1.083       .  S
C416       C1848   1.506       .  S
C416        C417   1.423       .  A
C416        C421   1.389       .  A
C417        C418   1.434       .  A
C417        H422   1.082       .  S
C418        C512   1.528       .  S
C418        C419   1.427       .  A
C419        C420   1.418       .  A
C419        H423   1.082       .  S
C420       C1920   1.499       .  S
C420        C421   1.391       .  A
C421        H424   1.086       .  S
O425       Ni431   1.960       .  S
O425        C446   1.284       .  A
O426       Ni449   1.963       .  S
O426        C435   1.294       .  A
O427       Ni431   1.865       .  S
O427       Ni449   1.884       .  S
O427       Ni443   1.870       .  S
O427        H450   0.966       .  S
C428        O445   1.265       .  A
C428        O437   1.272       .  A
C428       C1365   1.504       .  S
O429       Ni448   1.897       .  S
O429        C435   1.270       .  A
O430       Ni448   1.927       .  S
O430        C432   1.276       .  A
Ni431       O434   1.926       .  S
Ni431       O436   1.920       .  S
C432        O442   1.269       .  A
C432       C1377   1.501       .  S
O433       Ni449   1.965       .  S
O433        C439   1.303       .  A
O434        C439   1.281       .  A
C435       C1404   1.483       .  S
O436        C438   1.276       .  A
O437       Ni448   1.939       .  S
C438        O444   1.275       .  A
C438       C1389   1.485       .  S
C439       C1353   1.489       .  S
H440        O441   0.965       .  S
O441       Ni449   1.943       .  S
O441       Ni443   1.894       .  S
O441       Ni448   1.890       .  S
O442       Ni443   1.914       .  S
Ni443       O447   1.873       .  S
Ni443       O445   1.914       .  S
O444       Ni449   1.928       .  S
C446        O447   1.264       .  A
C446       C1416   1.468       .  S
O451       Ni457   1.963       .  S
O451        C472   1.284       .  A
O452       Ni475   1.962       .  S
O452        C461   1.290       .  A
O453       Ni457   1.882       .  S
O453       Ni475   1.892       .  S
O453       Ni469   1.886       .  S
O453        H476   0.966       .  S
C454        O471   1.277       .  A
C454        O463   1.276       .  A
C454       C1293   1.507       .  S
O455       Ni474   1.897       .  S
O455        C461   1.266       .  A
O456       Ni474   1.931       .  S
O456        C458   1.272       .  A
Ni457       O460   1.922       .  S
Ni457       O462   1.930       .  S
C458        O468   1.273       .  A
C458       C1284   1.515       .  S
O459       Ni475   1.966       .  S
O459        C465   1.302       .  A
O460        C465   1.281       .  A
C461       C1317   1.479       .  S
O462        C464   1.277       .  A
O463       Ni474   1.935       .  S
C464        O470   1.278       .  A
C464       C1305   1.505       .  S
C465       C1329   1.487       .  S
H466        O467   0.967       .  S
O467       Ni475   1.945       .  S
O467       Ni469   1.886       .  S
O467       Ni474   1.898       .  S
O468       Ni469   1.947       .  S
Ni469       O473   1.862       .  S
Ni469       O471   1.943       .  S
O470       Ni475   1.950       .  S
C472        O473   1.259       .  A
C472       C1344   1.469       .  S
C477        C478   1.432       .  A
C477        C482   1.436       .  A
C478        C479   1.419       .  A
C478        H483   1.080       .  S
C479       C1269   1.489       .  S
C479        C480   1.385       .  A
C480        C481   1.382       .  A
C480        H484   1.088       .  S
C481       C1332   1.494       .  S
C481        C482   1.422       .  A
C482        H485   1.081       .  S
O486       Ni492   1.973       .  S
O486        C507   1.288       .  A
O487       Ni510   1.946       .  S
O487        C496   1.282       .  A
O488       Ni492   1.881       .  S
O488       Ni510   1.895       .  S
O488       Ni504   1.890       .  S
O488        H511   0.967       .  S
C489        O506   1.285       .  A
C489        O498   1.277       .  A
C489       C1221   1.505       .  S
O490       Ni509   1.886       .  S
O490        C496   1.258       .  A
O491       Ni509   1.914       .  S
O491        C493   1.264       .  A
Ni492       O495   1.919       .  S
Ni492       O497   1.948       .  S
C493        O503   1.268       .  A
C493       C1245   1.503       .  S
O494       Ni510   1.947       .  S
O494        C500   1.295       .  A
O495        C500   1.279       .  A
C496       C1209   1.460       .  S
O497        C499   1.284       .  A
O498       Ni509   1.913       .  S
C499        O505   1.268       .  A
C499       C1272   1.490       .  S
C500       C1233   1.475       .  S
H501        O502   0.966       .  S
O502       Ni510   1.929       .  S
O502       Ni504   1.872       .  S
O502       Ni509   1.877       .  S
O503       Ni504   1.941       .  S
Ni504       O508   1.861       .  S
Ni504       O506   1.957       .  S
O505       Ni510   1.913       .  S
C507        O508   1.261       .  A
C507       C1257   1.488       .  S
C512        C513   1.434       .  A
C512        C517   1.425       .  A
C513        C514   1.426       .  A
C513        H518   1.082       .  S
C514       C1200   1.506       .  S
C514        C515   1.387       .  A
C515        C516   1.390       .  A
C515        H519   1.087       .  S
C516       C1224   1.486       .  S
C516        C517   1.415       .  A
C517        H520   1.083       .  S
C521        C522   1.433       .  A
C521        C526   1.418       .  A
C522        C523   1.428       .  A
C522        H527   1.082       .  S
C523       C1173   1.502       .  S
C523        C524   1.387       .  A
C524        C525   1.389       .  A
C524        H528   1.087       .  S
C525       C1185   1.480       .  S
C525        C526   1.406       .  A
C526        H529   1.084       .  S
O530       Ni536   1.972       .  S
O530        C551   1.286       .  A
O531       Ni554   1.957       .  S
O531        C540   1.290       .  A
O532       Ni536   1.875       .  S
O532       Ni554   1.896       .  S
O532       Ni548   1.885       .  S
O532        H555   0.967       .  S
C533        O550   1.275       .  A
C533        O542   1.275       .  A
C533       C1149   1.501       .  S
O534       Ni553   1.903       .  S
O534        C540   1.268       .  A
O535       Ni553   1.924       .  S
O535        C537   1.272       .  A
Ni536       O539   1.932       .  S
Ni536       O541   1.936       .  S
C537        O547   1.266       .  A
C537       C1137   1.496       .  S
O538       Ni554   1.966       .  S
O538        C544   1.302       .  A
O539        C544   1.284       .  A
C540       C1125   1.479       .  S
O541        C543   1.280       .  A
O542       Ni553   1.937       .  S
C543        O549   1.266       .  A
C543       C1164   1.486       .  S
C544       C1197   1.505       .  S
H545        O546   0.966       .  S
O546       Ni554   1.936       .  S
O546       Ni548   1.885       .  S
O546       Ni553   1.889       .  S
O547       Ni548   1.916       .  S
Ni548       O552   1.873       .  S
Ni548       O550   1.930       .  S
O549       Ni554   1.909       .  S
C551        O552   1.261       .  A
C551       C1188   1.474       .  S
C556        C557   1.438       .  A
C556        C561   1.418       .  A
C557        C558   1.423       .  A
C557        H562   1.082       .  S
C558       C1356   1.494       .  S
C558        C559   1.380       .  A
C559        C560   1.382       .  A
C559        H563   1.088       .  S
C560       C1212   1.470       .  S
C560        C561   1.409       .  A
C561        H564   1.083       .  S
O565       Ni571   1.968       .  S
O565        C586   1.285       .  A
O566       Ni589   1.991       .  S
O566        C575   1.295       .  A
O567       Ni571   1.881       .  S
O567       Ni589   1.929       .  S
O567       Ni583   1.895       .  S
O567        H590   0.966       .  S
C568        O585   1.278       .  A
C568        O577   1.276       .  A
C568       C1089   1.480       .  S
O569       Ni588   1.895       .  S
O569        C575   1.263       .  A
O570       Ni588   1.925       .  S
O570        C572   1.268       .  A
Ni571       O574   1.918       .  S
Ni571       O576   1.921       .  S
C572        O582   1.274       .  A
C572       C1113   1.503       .  S
O573       Ni589   1.947       .  S
O573        C579   1.294       .  A
O574        C579   1.280       .  A
C575       C1176   1.511       .  S
O576        C578   1.277       .  A
O577       Ni588   1.908       .  S
C578        O584   1.283       .  A
C578       C1065   1.509       .  S
C579       C1101   1.475       .  S
H580        O581   0.967       .  S
O581       Ni589   1.914       .  S
O581       Ni583   1.897       .  S
O581       Ni588   1.893       .  S
O582       Ni583   1.959       .  S
Ni583       O587   1.918       .  S
Ni583       O585   1.933       .  S
O584       Ni589   1.965       .  S
C586        O587   1.271       .  A
C586       C1077   1.523       .  S
C591        C592   1.441       .  A
C591        C596   1.426   1_554  A
C592        C593   1.430       .  A
C592        H597   1.080       .  S
C593       C1116   1.516       .  S
C593        C594   1.394       .  A
C594        C595   1.392   1_554  A
C594        H598   1.085       .  S
C595       C1053   1.503       .  S
C595        C596   1.420       .  A
C596        H599   1.081       .  S
O600       Ni606   1.976       .  S
O600        C621   1.289       .  A
O601       Ni624   1.970       .  S
O601        C610   1.293       .  A
O602       Ni606   1.876       .  S
O602       Ni624   1.891       .  S
O602       Ni618   1.874       .  S
O602        H625   0.966       .  S
C603        O620   1.268       .  A
C603        O612   1.267       .  A
C603       C1044   1.480       .  S
O604       Ni623   1.883       .  S
O604        C610   1.263       .  A
O605       Ni623   1.930       .  S
O605        C607   1.272       .  A
Ni606       O609   1.927       .  S
Ni606       O611   1.936       .  S
C607        O617   1.270       .  A
C607       C1005   1.507       .  S
O608       Ni624   1.955       .  S
O608        C614   1.299       .  A
O609        C614   1.282       .  A
C610        C981   1.482       .  S
O611        C613   1.281       .  A
O612       Ni623   1.921       .  S
C613        O619   1.280       .  A
C613       C1017   1.508       .  S
C614        C993   1.484       .  S
H615        O616   0.966       .  S
O616       Ni624   1.944       .  S
O616       Ni618   1.906       .  S
O616       Ni623   1.907       .  S
O617       Ni618   1.919       .  S
Ni618       O622   1.880       .  S
Ni618       O620   1.918       .  S
O619       Ni624   1.952       .  S
C621        O622   1.263       .  A
C621       C1029   1.492       .  S
C626       C1041   1.485       .  S
C626        C627   1.406       .  A
C626        C631   1.390   1_545  A
C627        C628   1.420   1_545  A
C627        H632   1.082       .  S
C628        C629   1.433       .  A
C629        C630   1.425       .  A
C629        H633   1.082       .  S
C630        C969   1.507       .  S
C630        C631   1.395       .  A
C631        H634   1.086       .  S
O635       Ni641   1.967       .  S
O635        C656   1.285       .  A
O636       Ni659   1.962       .  S
O636        C645   1.285       .  A
O637       Ni641   1.887       .  S
O637       Ni659   1.911       .  S
O637       Ni653   1.900       .  S
O637        H660   0.966       .  S
C638        O655   1.284       .  A
C638        O647   1.277       .  A
C638        C921   1.496       .  S
O639       Ni658   1.891       .  S
O639        C645   1.260       .  A
O640       Ni658   1.916       .  S
O640        C642   1.266       .  A
Ni641       O644   1.918       .  S
Ni641       O646   1.939       .  S
C642        O652   1.273       .  A
C642        C972   1.493       .  S
O643       Ni659   1.963       .  S
O643        C649   1.297       .  A
O644        C649   1.281       .  A
C645        C933   1.484       .  S
O646        C648   1.280       .  A
O647       Ni658   1.913       .  S
C648        O654   1.269       .  A
C648        C945   1.492       .  S
C649       C1056   1.511       .  S
H650        O651   0.966       .  S
O651       Ni659   1.933       .  S
O651       Ni653   1.883       .  S
O651       Ni658   1.889       .  S
O652       Ni653   1.953       .  S
Ni653       O657   1.896       .  S
Ni653       O655   1.954       .  S
O654       Ni659   1.920       .  S
C656        O657   1.269       .  A
C656        C957   1.502       .  S
O661       Ni667   1.957       .  S
O661        C682   1.284       .  A
O662       Ni685   1.944       .  S
O662        C671   1.281       .  A
O663       Ni667   1.880       .  S
O663       Ni685   1.907       .  S
O663       Ni679   1.899       .  S
O663        H686   0.967       .  S
C664        O681   1.284       .  A
C664        O673   1.280       .  A
C664        C876   1.502       .  S
O665       Ni684   1.893       .  S
O665        C671   1.261       .  A
O666       Ni684   1.921       .  S
O666        C668   1.266       .  A
Ni667       O670   1.908       .  S
Ni667       O672   1.946       .  S
C668        O678   1.273       .  A
C668        C909   1.503       .  S
O669       Ni685   1.954       .  S
O669        C675   1.294       .  A
O670        C675   1.275       .  A
C671        C897   1.472       .  S
O672        C674   1.282       .  A
O673       Ni684   1.919       .  S
C674        O680   1.271       .  A
C674        C861   1.506       .  S
C675        C885   1.498       .  S
H676        O677   0.967       .  S
O677       Ni685   1.929       .  S
O677       Ni679   1.876       .  S
O677       Ni684   1.887       .  S
O678       Ni679   1.960       .  S
Ni679       O683   1.893       .  S
Ni679       O681   1.950       .  S
O680       Ni685   1.933       .  S
C682        O683   1.268       .  A
C682        C849   1.496       .  S
C687        C688   1.438   1_655  A
C687        C692   1.425       .  A
C688        C689   1.433       .  A
C688        H693   1.082       .  S
C689        C912   1.517       .  S
C689        C690   1.394   1_455  A
C690        C691   1.391       .  A
C690        H694   1.086       .  S
C691        C960   1.494       .  S
C691        C692   1.414       .  A
C692        H695   1.082       .  S
C696       C1413   1.477       .  S
C696        C697   1.405       .  A
C696        C701   1.388       .  A
C697        C698   1.416       .  A
C697        H702   1.082       .  S
C698        C699   1.418       .  A
C699        C700   1.408       .  A
C699        H703   1.083       .  S
C700        C900   1.473       .  S
C700        C701   1.385       .  A
C701        H704   1.087   1_655  S
C705        C706   1.415       .  A
C705        C710   1.411       .  A
C706        C707   1.412       .  A
C706        H711   1.083       .  S
C707        C888   1.488       .  S
C707        C708   1.393       .  A
C708        C709   1.398       .  A
C708        H712   1.084       .  S
C709       C1392   1.480       .  S
C709        C710   1.403       .  A
C710        H713   1.083       .  S
C714        C715   1.433       .  A
C714        C719   1.415       .  A
C715        C716   1.417       .  A
C715        H720   1.082       .  S
C716       C1032   1.494       .  S
C716        C717   1.385       .  A
C717        C718   1.386       .  A
C717        H721   1.086   1_565  S
C718       C1341   1.474       .  S
C718        C719   1.405       .  A
C719        H722   1.083       .  S
C723       C1380   1.483       .  S
C723        C724   1.383       .  A
C723        C728   1.415       .  A
C724        C725   1.380   1_455  A
C724        H729   1.088       .  S
C725        C996   1.483       .  S
C725        C726   1.414       .  A
C726        C727   1.428   1_655  A
C726        H730   1.082       .  S
C727        C728   1.428       .  A
C728        H731   1.082       .  S
C732        C984   1.502       .  S
C732        C733   1.387   1_655  A
C732        C737   1.425       .  A
C733        C734   1.388       .  A
C733        H738   1.087       .  S
C734       C1368   1.487       .  S
C734        C735   1.409       .  A
C735        C736   1.425       .  A
C735        H739   1.083       .  S
C736        C737   1.433   1_455  A
C737        H740   1.082       .  S
C741        C742   1.417       .  A
C741        C746   1.419       .  A
C742        C743   1.410       .  A
C742        H747   1.083       .  S
C743       C1161   1.482       .  S
C743        C744   1.392       .  A
C744        C745   1.386       .  A
C744        H748   1.086       .  S
C745       C1104   1.481       .  S
C745        C746   1.412       .  A
C746        H749   1.083       .  S
C750       C1296   1.503       .  S
C750        C751   1.391   1_545  A
C750        C755   1.420       .  A
C751        C752   1.398       .  A
C751        H756   1.085       .  S
C752       C1080   1.522       .  S
C752        C753   1.430       .  A
C753        C754   1.440       .  A
C753        H757   1.082       .  S
C754        C755   1.427   1_565  A
C755        H758   1.083       .  S
C759       C1152   1.493       .  S
C759        C760   1.387   1_554  A
C759        C764   1.417       .  A
C760        C761   1.390       .  A
C760        H765   1.087       .  S
C761        C852   1.489       .  S
C761        C762   1.415       .  A
C762        C763   1.426       .  A
C762        H766   1.082       .  S
C763        C764   1.430   1_556  A
C764        H767   1.082       .  S
C768        C769   1.427       .  A
C768        C773   1.429       .  A
C769        C770   1.420       .  A
C769        H774   1.083       .  S
C770       C1308   1.505       .  S
C770        C771   1.397       .  A
C771        C772   1.398       .  A
C771        H775   1.085       .  S
C772       C1020   1.507       .  S
C772        C773   1.422       .  A
C773        H776   1.083       .  S
C777        C778   1.425       .  A
C777        C782   1.426       .  A
C778        C779   1.414       .  A
C778        H783   1.083       .  S
C779       C1248   1.486       .  S
C779        C780   1.386       .  A
C780        C781   1.385       .  A
C780        H784   1.087       .  S
C781       C1128   1.486       .  S
C781        C782   1.417       .  A
C782        H785   1.083       .  S
C786        C787   1.440       .  A
C786        C791   1.423   1_556  A
C787        C788   1.424       .  A
C787        H792   1.082       .  S
C788        C864   1.502       .  S
C788        C789   1.383       .  A
C789        C790   1.385   1_556  A
C789        H793   1.088       .  S
C790       C1140   1.481       .  S
C790        C791   1.414       .  A
C791        H794   1.083       .  S
C795        C796   1.434   1_565  A
C795        C800   1.437       .  A
C796        C797   1.425       .  A
C796        H801   1.082       .  S
C797       C1281   1.503       .  S
C797        C798   1.392   1_545  A
C798        C799   1.392       .  A
C798        H802   1.086       .  S
C799       C1068   1.507       .  S
C799        C800   1.425       .  A
C800        H803   1.082       .  S
C804        C805   1.434       .  A
C804        C809   1.422       .  A
C805        C806   1.424       .  A
C805        H810   1.082       .  S
C806       C1320   1.497       .  S
C806        C807   1.386       .  A
C807        C808   1.384       .  A
C807        H811   1.088       .  S
C808       C1260   1.475       .  S
C808        C809   1.404       .  A
C809        H812   1.081       .  S
C813        C814   1.431       .  A
C813        C818   1.429       .  A
C814        C815   1.421       .  A
C814        H819   1.082       .  S
C815       C1401   1.491       .  S
C815        C816   1.383       .  A
C816        C817   1.384       .  A
C816        H820   1.088       .  S
C817       C1236   1.488       .  S
C817        C818   1.416       .  A
C818        H821   1.083       .  S
C822        C873   1.489   1_554  S
C822        C823   1.412       .  A
C822        C827   1.385   1_455  A
C823        C824   1.429   1_455  A
C823        H828   1.082       .  S
C824        C825   1.428       .  A
C825        C826   1.418       .  A
C825        H829   1.082       .  S
C826        C948   1.486   1_554  S
C826        C827   1.386       .  A
C827        H830   1.087   1_554  S
C831       C1092   1.476   1_545  S
C831        C832   1.389   1_545  A
C831        C836   1.406       .  A
C832        C833   1.383   1_564  A
C832        H837   1.087       .  S
C833        C936   1.488   1_545  S
C833        C834   1.416       .  A
C834        C835   1.431   1_556  A
C834        H838   1.081       .  S
C835        C836   1.419       .  A
C836        H839   1.082       .  S
C840       C1008   1.486   1_455  S
C840        C841   1.388   1_445  A
C840        C845   1.416       .  A
C841        C842   1.387   1_655  A
C841        H846   1.087       .  S
C842        C924   1.489   1_455  S
C842        C843   1.413       .  A
C843        C844   1.428       .  A
C843        H847   1.082       .  S
C844        C845   1.426   1_565  A
C845        H848   1.082       .  S
C849        C850   1.411       .  A
C849        C854   1.414       .  A
C850        C851   1.408       .  A
C850        H859   1.081       .  S
C851        C852   1.407       .  A
C851        S855   1.805       .  S
C852        C853   1.408       .  A
C853        C854   1.406       .  A
C853        H860   1.083       .  S
C854        S856   1.808       .  S
S855        H858   1.407       .  S
S856        H857   1.407       .  S
C861        C862   1.403       .  A
C861        C866   1.423       .  A
C862        C863   1.404       .  A
C862        H871   1.082       .  S
C863        C864   1.420       .  A
C863        S867   1.805       .  S
C864        C865   1.408       .  A
C865        C866   1.417       .  A
C865        H872   1.083       .  S
C866        S868   1.801       .  S
S867        H870   1.406       .  S
S868        H869   1.406       .  S
C873        C874   1.409       .  A
C873        C878   1.411       .  A
C874        C875   1.413       .  A
C874        H883   1.083       .  S
C875        C876   1.416       .  A
C875        S879   1.805       .  S
C876        C877   1.410       .  A
C877        C878   1.402       .  A
C877        H884   1.084       .  S
C878        S880   1.802   1_556  S
S879        H882   1.407       .  S
S880        H881   1.404       .  S
C885        C886   1.406       .  A
C885        C890   1.432       .  A
C886        C887   1.408       .  A
C886        H895   1.083       .  S
C887        C888   1.419       .  A
C887        S891   1.804       .  S
C888        C889   1.394       .  A
C889        C890   1.397       .  A
C889        H896   1.083       .  S
C890        S892   1.815       .  S
S891        H894   1.407       .  S
S892        H893   1.406       .  S
C897        C898   1.401       .  A
C897        C902   1.415       .  A
C898        C899   1.401       .  A
C898        H907   1.084       .  S
C899        C900   1.416   1_455  A
C899        S903   1.804       .  S
C900        C901   1.399       .  A
C901        C902   1.398   1_655  A
C901        H908   1.084       .  S
C902        S904   1.801       .  S
S903        H906   1.407   1_455  S
S904        H905   1.407       .  S
C909        C910   1.411       .  A
C909        C914   1.411       .  A
C910        C911   1.418       .  A
C910        H919   1.083       .  S
C911        C912   1.413       .  A
C911        S915   1.803       .  S
C912        C913   1.418       .  A
C913        C914   1.413       .  A
C913        H920   1.084       .  S
C914        S916   1.803       .  S
S915        H918   1.407       .  S
S916        H917   1.407       .  S
C921        C922   1.408       .  A
C921        C926   1.415       .  A
C922        C923   1.402       .  A
C922        H931   1.084       .  S
C923        C924   1.411       .  A
C923        S927   1.802   1_655  S
C924        C925   1.411       .  A
C925        C926   1.409       .  A
C925        H932   1.084       .  S
C926        S928   1.801       .  S
S927        H930   1.404       .  S
S928        H929   1.407       .  S
C933        C934   1.406       .  A
C933        C938   1.417       .  A
C934        C935   1.404       .  A
C934        H943   1.084       .  S
C935        C936   1.413       .  A
C935        S939   1.802       .  S
C936        C937   1.407       .  A
C937        C938   1.408       .  A
C937        H944   1.084       .  S
C938        S940   1.804       .  S
S939        H942   1.405   1_565  S
S940        H941   1.402       .  S
C945        C946   1.409       .  A
C945        C950   1.414       .  A
C946        C947   1.411       .  A
C946        H955   1.083       .  S
C947        C948   1.411       .  A
C947        S951   1.804   1_556  S
C948        C949   1.405       .  A
C949        C950   1.405       .  A
C949        H956   1.083       .  S
C950        S952   1.804       .  S
S951        H954   1.407   1_554  S
S952        H953   1.407       .  S
C957        C958   1.411       .  A
C957        C962   1.417       .  A
C958        C959   1.405       .  A
C958        H967   1.083       .  S
C959        C960   1.411       .  A
C959        S963   1.800       .  S
C960        C961   1.409       .  A
C961        C962   1.407       .  A
C961        H968   1.084       .  S
C962        S964   1.802       .  S
S963        H966   1.404       .  S
S964        H965   1.407       .  S
C969        C970   1.415       .  A
C969        C974   1.416       .  A
C970        C971   1.408       .  A
C970        H979   1.084       .  S
C971        C972   1.409       .  A
C971        S975   1.804       .  S
C972        C973   1.409       .  A
C973        C974   1.411       .  A
C973        H980   1.084       .  S
C974        S976   1.802       .  S
S975        H978   1.406       .  S
S976        H977   1.406       .  S
C981        C982   1.410       .  A
C981        C986   1.414       .  A
C982        C983   1.414       .  A
C982        H991   1.084       .  S
C983        C984   1.417       .  A
C983        S987   1.799       .  S
C984        C985   1.410       .  A
C985        C986   1.403       .  A
C985        H992   1.084       .  S
C986        S988   1.805       .  S
S987        H990   1.404       .  S
S988        H989   1.407       .  S
C993        C994   1.401       .  A
C993        C998   1.417       .  A
C994        C995   1.403       .  A
C994       H1003   1.084       .  S
C995        C996   1.419       .  A
C995        S999   1.804       .  S
C996        C997   1.399       .  A
C997        C998   1.406       .  A
C997       H1004   1.083       .  S
C998       S1000   1.800       .  S
S999       H1002   1.407       .  S
S1000      H1001   1.407       .  S
C1005      C1006   1.413       .  A
C1005      C1010   1.423       .  A
C1006      C1007   1.402       .  A
C1006      H1015   1.083       .  S
C1007      C1008   1.410       .  A
C1007      S1011   1.802       .  S
C1008      C1009   1.406       .  A
C1009      C1010   1.407       .  A
C1009      H1016   1.084       .  S
C1010      S1012   1.800       .  S
S1011      H1014   1.405   1_655  S
S1012      H1013   1.408       .  S
C1017      C1018   1.413       .  A
C1017      C1022   1.414       .  A
C1018      C1019   1.416       .  A
C1018      H1027   1.082       .  S
C1019      C1020   1.412       .  A
C1019      S1023   1.807       .  S
C1020      C1021   1.411       .  A
C1021      C1022   1.409       .  A
C1021      H1028   1.084       .  S
C1022      S1024   1.802       .  S
S1023      H1026   1.407       .  S
S1024      H1025   1.408       .  S
C1029      C1030   1.411       .  A
C1029      C1034   1.411       .  A
C1030      C1031   1.409   1_545  A
C1030      H1039   1.083       .  S
C1031      C1032   1.407       .  A
C1031      S1035   1.804       .  S
C1032      C1033   1.414   1_565  A
C1033      C1034   1.405       .  A
C1033      H1040   1.084       .  S
C1034      S1036   1.803       .  S
S1035      H1038   1.407       .  S
S1036      H1037   1.407       .  S
C1041      C1042   1.409       .  A
C1041      C1046   1.412       .  A
C1042      C1043   1.402       .  A
C1042      H1051   1.084       .  S
C1043      C1044   1.410       .  A
C1043      S1047   1.800       .  S
C1044      C1045   1.405       .  A
C1045      C1046   1.401       .  A
C1045      H1052   1.084       .  S
C1046      S1048   1.801       .  S
S1047      H1050   1.405       .  S
S1048      H1049   1.403       .  S
C1053      C1054   1.417       .  A
C1053      C1058   1.408       .  A
C1054      C1055   1.416       .  A
C1054      H1063   1.083       .  S
C1055      C1056   1.413       .  A
C1055      S1059   1.805       .  S
C1056      C1057   1.417       .  A
C1057      C1058   1.403       .  A
C1057      H1064   1.079       .  S
C1058      S1060   1.810       .  S
S1059      H1062   1.407       .  S
S1060      H1061   1.406       .  S
C1065      C1066   1.408       .  A
C1065      C1070   1.420       .  A
C1066      C1067   1.403       .  A
C1066      H1075   1.084       .  S
C1067      C1068   1.417       .  A
C1067      S1071   1.805       .  S
C1068      C1069   1.411       .  A
C1069      C1070   1.420       .  A
C1069      H1076   1.083       .  S
C1070      S1072   1.801       .  S
S1071      H1074   1.406       .  S
S1072      H1073   1.407       .  S
C1077      C1078   1.407       .  A
C1077      C1082   1.427       .  A
C1078      C1079   1.405       .  A
C1078      H1087   1.083       .  S
C1079      C1080   1.425       .  A
C1079      S1083   1.808       .  S
C1080      C1081   1.408       .  A
C1081      C1082   1.424       .  A
C1081      H1088   1.082       .  S
C1082      S1084   1.805       .  S
S1083      H1086   1.407       .  S
S1084      H1085   1.407       .  S
C1089      C1090   1.405       .  A
C1089      C1094   1.409       .  A
C1090      C1091   1.395       .  A
C1090      H1099   1.084       .  S
C1091      C1092   1.409       .  A
C1091      S1095   1.802   1_565  S
C1092      C1093   1.409       .  A
C1093      C1094   1.407       .  A
C1093      H1100   1.083       .  S
C1094      S1096   1.802       .  S
S1095      H1098   1.404       .  S
S1096      H1097   1.407       .  S
C1101      C1102   1.403       .  A
C1101      C1106   1.413       .  A
C1102      C1103   1.397       .  A
C1102      H1111   1.085       .  S
C1103      C1104   1.413       .  A
C1103      S1107   1.804       .  S
C1104      C1105   1.407       .  A
C1105      C1106   1.408       .  A
C1105      H1112   1.084       .  S
C1106      S1108   1.802       .  S
S1107      H1110   1.405       .  S
S1108      H1109   1.405       .  S
C1113      C1114   1.411       .  A
C1113      C1118   1.411       .  A
C1114      C1115   1.416       .  A
C1114      H1123   1.084       .  S
C1115      C1116   1.416       .  A
C1115      S1119   1.799       .  S
C1116      C1117   1.417       .  A
C1117      C1118   1.412       .  A
C1117      H1124   1.084       .  S
C1118      S1120   1.802       .  S
S1119      H1122   1.403       .  S
S1120      H1121   1.407       .  S
C1125      C1126   1.404       .  A
C1125      C1130   1.417       .  A
C1126      C1127   1.400       .  A
C1126      H1135   1.085       .  S
C1127      C1128   1.415       .  A
C1127      S1131   1.804       .  S
C1128      C1129   1.406       .  A
C1129      C1130   1.410       .  A
C1129      H1136   1.084       .  S
C1130      S1132   1.805       .  S
S1131      H1134   1.407       .  S
S1132      H1133   1.403       .  S
C1137      C1138   1.409       .  A
C1137      C1142   1.420       .  A
C1138      C1139   1.401       .  A
C1138      H1147   1.083       .  S
C1139      C1140   1.411       .  A
C1139      S1143   1.802       .  S
C1140      C1141   1.406       .  A
C1141      C1142   1.405       .  A
C1141      H1148   1.084       .  S
C1142      S1144   1.804       .  S
S1143      H1146   1.407       .  S
S1144      H1145   1.408       .  S
C1149      C1150   1.408       .  A
C1149      C1154   1.418       .  A
C1150      C1151   1.402       .  A
C1150      H1159   1.084       .  S
C1151      C1152   1.412       .  A
C1151      S1155   1.800       .  S
C1152      C1153   1.410       .  A
C1153      C1154   1.412       .  A
C1153      H1160   1.084       .  S
C1154      S1156   1.801       .  S
S1155      H1158   1.404       .  S
S1156      H1157   1.407       .  S
C1161      C1162   1.397       .  A
C1161      C1166   1.417       .  A
C1162      C1163   1.404       .  A
C1162      H1171   1.083       .  S
C1163      C1164   1.426       .  A
C1163      S1167   1.811       .  S
C1164      C1165   1.400       .  A
C1165      C1166   1.398       .  A
C1165      H1172   1.084       .  S
C1166      S1168   1.804       .  S
S1167      H1170   1.407       .  S
S1168      H1169   1.407       .  S
C1173      C1174   1.400       .  A
C1173      C1178   1.423   1_556  A
C1174      C1175   1.408   1_556  A
C1174      H1183   1.084       .  S
C1175      C1176   1.426       .  A
C1175      S1179   1.800       .  S
C1176      C1177   1.407       .  A
C1177      C1178   1.417       .  A
C1177      H1184   1.083       .  S
C1178      S1180   1.803   1_554  S
S1179      H1182   1.407       .  S
S1180      H1181   1.407       .  S
C1185      C1186   1.401       .  A
C1185      C1190   1.415       .  A
C1186      C1187   1.402   1_556  A
C1186      H1195   1.084       .  S
C1187      C1188   1.415       .  A
C1187      S1191   1.804       .  S
C1188      C1189   1.401       .  A
C1189      C1190   1.401   1_554  A
C1189      H1196   1.084       .  S
C1190      S1192   1.804       .  S
S1191      H1194   1.406       .  S
S1192      H1193   1.407       .  S
C1197      C1198   1.416       .  A
C1197      C1202   1.413       .  A
C1198      C1199   1.412       .  A
C1198      H1207   1.083       .  S
C1199      C1200   1.410       .  A
C1199      S1203   1.807       .  S
C1200      C1201   1.415       .  A
C1201      C1202   1.411       .  A
C1201      H1208   1.084       .  S
C1202      S1204   1.800       .  S
S1203      H1206   1.407       .  S
S1204      H1205   1.406       .  S
C1209      C1210   1.402       .  A
C1209      C1214   1.414       .  A
C1210      C1211   1.396       .  A
C1210      H1219   1.084       .  S
C1211      C1212   1.412       .  A
C1211      S1215   1.804       .  S
C1212      C1213   1.403       .  A
C1213      C1214   1.402       .  A
C1213      H1220   1.084       .  S
C1214      S1216   1.804       .  S
S1215      H1218   1.406       .  S
S1216      H1217   1.406       .  S
C1221      C1222   1.408       .  A
C1221      C1226   1.422       .  A
C1222      C1223   1.399       .  A
C1222      H1231   1.083       .  S
C1223      C1224   1.413       .  A
C1223      S1227   1.805       .  S
C1224      C1225   1.404       .  A
C1225      C1226   1.413       .  A
C1225      H1232   1.083       .  S
C1226      S1228   1.805       .  S
S1227      H1230   1.406       .  S
S1228      H1229   1.407       .  S
C1233      C1234   1.408       .  A
C1233      C1238   1.408       .  A
C1234      C1235   1.410       .  A
C1234      H1243   1.084       .  S
C1235      C1236   1.415       .  A
C1235      S1239   1.802       .  S
C1236      C1237   1.409       .  A
C1237      C1238   1.397       .  A
C1237      H1244   1.085       .  S
C1238      S1240   1.802       .  S
S1239      H1242   1.403       .  S
S1240      H1241   1.406       .  S
C1245      C1246   1.411       .  A
C1245      C1250   1.423       .  A
C1246      C1247   1.411       .  A
C1246      H1255   1.083       .  S
C1247      C1248   1.414       .  A
C1247      S1251   1.802       .  S
C1248      C1249   1.403       .  A
C1249      C1250   1.399       .  A
C1249      H1256   1.085       .  S
C1250      S1252   1.802       .  S
S1251      H1254   1.405       .  S
S1252      H1253   1.408       .  S
C1257      C1258   1.412       .  A
C1257      C1262   1.412       .  A
C1258      C1259   1.395       .  A
C1258      H1267   1.084       .  S
C1259      C1260   1.405       .  A
C1259      S1263   1.803       .  S
C1260      C1261   1.410       .  A
C1261      C1262   1.403       .  A
C1261      H1268   1.084       .  S
C1262      S1264   1.802       .  S
S1263      H1266   1.404       .  S
S1264      H1265   1.407       .  S
C1269      C1270   1.410       .  A
C1269      C1274   1.412       .  A
C1270      C1271   1.407       .  A
C1270      H1279   1.083       .  S
C1271      C1272   1.411       .  A
C1271      S1275   1.807       .  S
C1272      C1273   1.410       .  A
C1273      C1274   1.407       .  A
C1273      H1280   1.084       .  S
C1274      S1276   1.801       .  S
S1275      H1278   1.407       .  S
S1276      H1277   1.405       .  S
C1281      C1282   1.409       .  A
C1281      C1286   1.415       .  A
C1282      C1283   1.413       .  A
C1282      H1291   1.084       .  S
C1283      C1284   1.421       .  A
C1283      S1287   1.801       .  S
C1284      C1285   1.412       .  A
C1285      C1286   1.410       .  A
C1285      H1292   1.084       .  S
C1286      S1288   1.803       .  S
S1287      H1290   1.408       .  S
S1288      H1289   1.405       .  S
C1293      C1294   1.409       .  A
C1293      C1298   1.417       .  A
C1294      C1295   1.409       .  A
C1294      H1303   1.081       .  S
C1295      C1296   1.416       .  A
C1295      S1299   1.801       .  S
C1296      C1297   1.410       .  A
C1297      C1298   1.412       .  A
C1297      H1304   1.084       .  S
C1298      S1300   1.802       .  S
S1299      H1302   1.404       .  S
S1300      H1301   1.408       .  S
C1305      C1306   1.412       .  A
C1305      C1310   1.414       .  A
C1306      C1307   1.411       .  A
C1306      H1315   1.083       .  S
C1307      C1308   1.415       .  A
C1307      S1311   1.803       .  S
C1308      C1309   1.412       .  A
C1309      C1310   1.409       .  A
C1309      H1316   1.084       .  S
C1310      S1312   1.802       .  S
S1311      H1314   1.406       .  S
S1312      H1313   1.407       .  S
C1317      C1318   1.411       .  A
C1317      C1322   1.410       .  A
C1318      C1319   1.416       .  A
C1318      H1327   1.084       .  S
C1319      C1320   1.416       .  A
C1319      S1323   1.803       .  S
C1320      C1321   1.410       .  A
C1321      C1322   1.396       .  A
C1321      H1328   1.085       .  S
C1322      S1324   1.806       .  S
S1323      H1326   1.403       .  S
S1324      H1325   1.407       .  S
C1329      C1330   1.406       .  A
C1329      C1334   1.417       .  A
C1330      C1331   1.410       .  A
C1330      H1339   1.083       .  S
C1331      C1332   1.417       .  A
C1331      S1335   1.802       .  S
C1332      C1333   1.406       .  A
C1333      C1334   1.408       .  A
C1333      H1340   1.084       .  S
C1334      S1336   1.804       .  S
S1335      H1338   1.407       .  S
S1336      H1337   1.405       .  S
C1341      C1342   1.409   1_565  A
C1341      C1346   1.410       .  A
C1342      C1343   1.399       .  A
C1342      H1351   1.084       .  S
C1343      C1344   1.410       .  A
C1343      S1347   1.805       .  S
C1344      C1345   1.404       .  A
C1345      C1346   1.393   1_545  A
C1345      H1352   1.085       .  S
C1346      S1348   1.802       .  S
S1347      H1350   1.403       .  S
S1348      H1349   1.408       .  S
C1353      C1354   1.407       .  A
C1353      C1358   1.415       .  A
C1354      C1355   1.411       .  A
C1354      H1363   1.084       .  S
C1355      C1356   1.416       .  A
C1355      S1359   1.801       .  S
C1356      C1357   1.408       .  A
C1357      C1358   1.407       .  A
C1357      H1364   1.084       .  S
C1358      S1360   1.798       .  S
S1359      H1362   1.406       .  S
S1360      H1361   1.407       .  S
C1365      C1366   1.411       .  A
C1365      C1370   1.422       .  A
C1366      C1367   1.410       .  A
C1366      H1375   1.083       .  S
C1367      C1368   1.414       .  A
C1367      S1371   1.801       .  S
C1368      C1369   1.403       .  A
C1369      C1370   1.397       .  A
C1369      H1376   1.085       .  S
C1370      S1372   1.801       .  S
S1371      H1374   1.405       .  S
S1372      H1373   1.408       .  S
C1377      C1378   1.408       .  A
C1377      C1382   1.426       .  A
C1378      C1379   1.402       .  A
C1378      H1387   1.082       .  S
C1379      C1380   1.414       .  A
C1379      S1383   1.810       .  S
C1380      C1381   1.400       .  A
C1381      C1382   1.408       .  A
C1381      H1388   1.083       .  S
C1382      S1384   1.809       .  S
S1383      H1386   1.406       .  S
S1384      H1385   1.407       .  S
C1389      C1390   1.409       .  A
C1389      C1394   1.412       .  A
C1390      C1391   1.403       .  A
C1390      H1399   1.082       .  S
C1391      C1392   1.409       .  A
C1391      S1395   1.808       .  S
C1392      C1393   1.406       .  A
C1393      C1394   1.396       .  A
C1393      H1400   1.084       .  S
C1394      S1396   1.803       .  S
S1395      H1398   1.407       .  S
S1396      H1397   1.408       .  S
C1401      C1402   1.407       .  A
C1401      C1406   1.418       .  A
C1402      C1403   1.411       .  A
C1402      H1411   1.084       .  S
C1403      C1404   1.415       .  A
C1403      S1407   1.801       .  S
C1404      C1405   1.405       .  A
C1405      C1406   1.403       .  A
C1405      H1412   1.084       .  S
C1406      S1408   1.805       .  S
S1407      H1410   1.407       .  S
S1408      H1409   1.407       .  S
C1413      C1414   1.408   1_655  A
C1413      C1418   1.411       .  A
C1414      C1415   1.397       .  A
C1414      H1423   1.084       .  S
C1415      C1416   1.411       .  A
C1415      S1419   1.807       .  S
C1416      C1417   1.403       .  A
C1417      C1418   1.398   1_455  A
C1417      H1424   1.084       .  S
C1418      S1420   1.800       .  S
S1419      H1422   1.404       .  S
S1420      H1421   1.404       .  S
C1425      C1426   1.403       .  A
C1425      C1430   1.421       .  A
C1426      C1427   1.405       .  A
C1426      H1435   1.082       .  S
C1427      C1428   1.416       .  A
C1427      S1431   1.801       .  S
C1428      C1429   1.403       .  A
C1429      C1430   1.405       .  A
C1429      H1436   1.084   1_565  S
C1430      S1432   1.802       .  S
S1431      H1434   1.407   1_565  S
S1432      H1433   1.405       .  S
C1437      C1438   1.412       .  A
C1437      C1442   1.414       .  A
C1438      C1439   1.404       .  A
C1438      H1447   1.084       .  S
C1439      C1440   1.412       .  A
C1439      S1443   1.801       .  S
C1440      C1441   1.416       .  A
C1441      C1442   1.414       .  A
C1441      H1448   1.084       .  S
C1442      S1444   1.799       .  S
S1443      H1446   1.404       .  S
S1444      H1445   1.407       .  S
C1449      C1450   1.404       .  A
C1449      C1454   1.432       .  A
C1450      C1451   1.407       .  A
C1450      H1459   1.083       .  S
C1451      C1452   1.419       .  A
C1451      S1455   1.803       .  S
C1452      C1453   1.395       .  A
C1453      C1454   1.399       .  A
C1453      H1460   1.083       .  S
C1454      S1456   1.815       .  S
S1455      H1458   1.407       .  S
S1456      H1457   1.407       .  S
C1461      C1462   1.402       .  A
C1461      C1466   1.424       .  A
C1462      C1463   1.413       .  A
C1462      H1471   1.083       .  S
C1463      C1464   1.423       .  A
C1463      S1467   1.805       .  S
C1464      C1465   1.403       .  A
C1465      C1466   1.414       .  A
C1465      H1472   1.083       .  S
C1466      S1468   1.801       .  S
S1467      H1470   1.407       .  S
S1468      H1469   1.403       .  S
C1473      C1474   1.405       .  A
C1473      C1478   1.414       .  A
C1474      C1475   1.410       .  A
C1474      H1483   1.084       .  S
C1475      C1476   1.416       .  A
C1475      S1479   1.802       .  S
C1476      C1477   1.402       .  A
C1477      C1478   1.390       .  A
C1477      H1484   1.085       .  S
C1478      S1480   1.808       .  S
S1479      H1482   1.405       .  S
S1480      H1481   1.407       .  S
C1485      C1486   1.413       .  A
C1485      C1490   1.421       .  A
C1486      C1487   1.404       .  A
C1486      H1495   1.083       .  S
C1487      C1488   1.412       .  A
C1487      S1491   1.803       .  S
C1488      C1489   1.410       .  A
C1489      C1490   1.412       .  A
C1489      H1496   1.084       .  S
C1490      S1492   1.800       .  S
S1491      H1494   1.405   1_565  S
S1492      H1493   1.408       .  S
C1497      C1498   1.402       .  A
C1497      C1502   1.418       .  A
C1498      C1499   1.399       .  A
C1498      H1507   1.084       .  S
C1499      C1500   1.416       .  A
C1499      S1503   1.805       .  S
C1500      C1501   1.403       .  A
C1501      C1502   1.406       .  A
C1501      H1508   1.084       .  S
C1502      S1504   1.800       .  S
S1503      H1506   1.407       .  S
S1504      H1505   1.404       .  S
C1509      C1510   1.404       .  A
C1509      C1514   1.417       .  A
C1510      C1511   1.398       .  A
C1510      H1519   1.084       .  S
C1511      C1512   1.415       .  A
C1511      S1515   1.807       .  S
C1512      C1513   1.408       .  A
C1513      C1514   1.413       .  A
C1513      H1520   1.083       .  S
C1514      S1516   1.801       .  S
S1515      H1518   1.407       .  S
S1516      H1517   1.402       .  S
C1521      C1522   1.404       .  A
C1521      C1526   1.417       .  A
C1522      C1523   1.396       .  A
C1522      H1531   1.083       .  S
C1523      C1524   1.412       .  A
C1523      S1527   1.804       .  S
C1524      C1525   1.403       .  A
C1525      C1526   1.402       .  A
C1525      H1532   1.084       .  S
C1526      S1528   1.801       .  S
S1527      H1530   1.405       .  S
S1528      H1529   1.407       .  S
C1533      C1534   1.409       .  A
C1533      C1538   1.412       .  A
C1534      C1535   1.405       .  A
C1534      H1543   1.084       .  S
C1535      C1536   1.413       .  A
C1535      S1539   1.802       .  S
C1536      C1537   1.410       .  A
C1537      C1538   1.404       .  A
C1537      H1544   1.084       .  S
C1538      S1540   1.800       .  S
S1539      H1542   1.407       .  S
S1540      H1541   1.404       .  S
C1545      C1546   1.404       .  A
C1545      C1550   1.416       .  A
C1546      C1547   1.410       .  A
C1546      H1555   1.084       .  S
C1547      C1548   1.419       .  A
C1547      S1551   1.799       .  S
C1548      C1549   1.406       .  A
C1549      C1550   1.403       .  A
C1549      H1556   1.084       .  S
C1550      S1552   1.805       .  S
S1551      H1554   1.405       .  S
S1552      H1553   1.407       .  S
C1557      C1558   1.407       .  A
C1557      C1562   1.424       .  A
C1558      C1559   1.407       .  A
C1558      H1567   1.084       .  S
C1559      C1560   1.419       .  A
C1559      S1563   1.805       .  S
C1560      C1561   1.405       .  A
C1561      C1562   1.417       .  A
C1561      H1568   1.083       .  S
C1562      S1564   1.805       .  S
S1563      H1566   1.406       .  S
S1564      H1565   1.407       .  S
C1569      C1570   1.405       .  A
C1569      C1574   1.426       .  A
C1570      C1571   1.416       .  A
C1570      H1579   1.083       .  S
C1571      C1572   1.423       .  A
C1571      S1575   1.799       .  S
C1572      C1573   1.404       .  A
C1573      C1574   1.413       .  A
C1573      H1580   1.083       .  S
C1574      S1576   1.806       .  S
S1575      H1578   1.405       .  S
S1576      H1577   1.408       .  S
C1581      C1582   1.409       .  A
C1581      C1586   1.406       .  A
C1582      C1583   1.403       .  A
C1582      H1591   1.084       .  S
C1583      C1584   1.410       .  A
C1583      S1587   1.795       .  S
C1584      C1585   1.416       .  A
C1585      C1586   1.408       .  A
C1585      H1592   1.083       .  S
C1586      S1588   1.806   1_545  S
S1587      H1590   1.406       .  S
S1588      H1589   1.407   1_565  S
C1593      C1594   1.422       .  A
C1593      C1598   1.411       .  A
C1594      C1595   1.419       .  A
C1594      H1603   1.084       .  S
C1595      C1596   1.413       .  A
C1595      S1599   1.800       .  S
C1596      C1597   1.421       .  A
C1597      C1598   1.414       .  A
C1597      H1604   1.082       .  S
C1598      S1600   1.807       .  S
S1599      H1602   1.407       .  S
S1600      H1601   1.406       .  S
C1605      C1606   1.398       .  A
C1605      C1610   1.420       .  A
C1606      C1607   1.403       .  A
C1606      H1615   1.084       .  S
C1607      C1608   1.425       .  A
C1607      S1611   1.806       .  S
C1608      C1609   1.401       .  A
C1609      C1610   1.409       .  A
C1609      H1616   1.083   1_455  S
C1610      S1612   1.805       .  S
S1611      H1614   1.407   1_565  S
S1612      H1613   1.407   1_455  S
C1617      C1618   1.404       .  A
C1617      C1622   1.421       .  A
C1618      C1619   1.418       .  A
C1618      H1627   1.083       .  S
C1619      C1620   1.429       .  A
C1619      S1623   1.808       .  S
C1620      C1621   1.411       .  A
C1621      C1622   1.416       .  A
C1621      H1628   1.083       .  S
C1622      S1624   1.803       .  S
S1623      H1626   1.407       .  S
S1624      H1625   1.407   1_455  S
C1629      C1630   1.409       .  A
C1629      C1634   1.414       .  A
C1630      C1631   1.402       .  A
C1630      H1639   1.084       .  S
C1631      C1632   1.410       .  A
C1631      S1635   1.802       .  S
C1632      C1633   1.404       .  A
C1633      C1634   1.401       .  A
C1633      H1640   1.084       .  S
C1634      S1636   1.802       .  S
S1635      H1638   1.405       .  S
S1636      H1637   1.403       .  S
C1641      C1642   1.405       .  A
C1641      C1646   1.422       .  A
C1642      C1643   1.403       .  A
C1642      H1651   1.084       .  S
C1643      C1644   1.416       .  A
C1643      S1647   1.804       .  S
C1644      C1645   1.406       .  A
C1645      C1646   1.413       .  A
C1645      H1652   1.084       .  S
C1646      S1648   1.801       .  S
S1647      H1650   1.407   1_545  S
S1648      H1649   1.404       .  S
C1653      C1654   1.407       .  A
C1653      C1658   1.410       .  A
C1654      C1655   1.401       .  A
C1654      H1663   1.084       .  S
C1655      C1656   1.413       .  A
C1655      S1659   1.807       .  S
C1656      C1657   1.405       .  A
C1657      C1658   1.398       .  A
C1657      H1664   1.084       .  S
C1658      S1660   1.803       .  S
S1659      H1662   1.402       .  S
S1660      H1661   1.407       .  S
C1665      C1666   1.405       .  A
C1665      C1670   1.419       .  A
C1666      C1667   1.408       .  A
C1666      H1675   1.084       .  S
C1667      C1668   1.417   1_556  A
C1667      S1671   1.802       .  S
C1668      C1669   1.401   1_554  A
C1669      C1670   1.404       .  A
C1669      H1676   1.084   1_556  S
C1670      S1672   1.802       .  S
S1671      H1674   1.407   1_556  S
S1672      H1673   1.406       .  S
C1677      C1678   1.409       .  A
C1677      C1682   1.417       .  A
C1678      C1679   1.413       .  A
C1678      H1687   1.084       .  S
C1679      C1680   1.415       .  A
C1679      S1683   1.802       .  S
C1680      C1681   1.401       .  A
C1681      C1682   1.396       .  A
C1681      H1688   1.084       .  S
C1682      S1684   1.804       .  S
S1683      H1686   1.406       .  S
S1684      H1685   1.406       .  S
C1689      C1690   1.401       .  A
C1689      C1694   1.418       .  A
C1690      C1691   1.403       .  A
C1690      H1699   1.084       .  S
C1691      C1692   1.419       .  A
C1691      S1695   1.803       .  S
C1692      C1693   1.402       .  A
C1693      C1694   1.406       .  A
C1693      H1700   1.083       .  S
C1694      S1696   1.809       .  S
S1695      H1698   1.407   1_545  S
S1696      H1697   1.406       .  S
C1701      C1702   1.414       .  A
C1701      C1706   1.413       .  A
C1702      C1703   1.407       .  A
C1702      H1711   1.084       .  S
C1703      C1704   1.411       .  A
C1703      S1707   1.803       .  S
C1704      C1705   1.410       .  A
C1705      C1706   1.417       .  A
C1705      H1712   1.083       .  S
C1706      S1708   1.804       .  S
S1707      H1710   1.406       .  S
S1708      H1709   1.407       .  S
C1713      C1714   1.411       .  A
C1713      C1718   1.410       .  A
C1714      C1715   1.395       .  A
C1714      H1723   1.084       .  S
C1715      C1716   1.404       .  A
C1715      S1719   1.801       .  S
C1716      C1717   1.409       .  A
C1717      C1718   1.405       .  A
C1717      H1724   1.083       .  S
C1718      S1720   1.806       .  S
S1719      H1722   1.403       .  S
S1720      H1721   1.407       .  S
C1725      C1726   1.407       .  A
C1725      C1730   1.411       .  A
C1726      C1727   1.400   1_556  A
C1726      H1735   1.084       .  S
C1727      C1728   1.411       .  A
C1727      S1731   1.802       .  S
C1728      C1729   1.413   1_554  A
C1729      C1730   1.409       .  A
C1729      H1736   1.084       .  S
C1730      S1732   1.801       .  S
S1731      H1734   1.403       .  S
S1732      H1733   1.406       .  S
C1737      C1738   1.400       .  A
C1737      C1742   1.408       .  A
C1738      C1739   1.393       .  A
C1738      H1747   1.084       .  S
C1739      C1740   1.413       .  A
C1739      S1743   1.805       .  S
C1740      C1741   1.404       .  A
C1741      C1742   1.402       .  A
C1741      H1748   1.084       .  S
C1742      S1744   1.800       .  S
S1743      H1746   1.406       .  S
S1744      H1745   1.407       .  S
C1749      C1750   1.408       .  A
C1749      C1754   1.410       .  A
C1750      C1751   1.394       .  A
C1750      H1759   1.085       .  S
C1751      C1752   1.408       .  A
C1751      S1755   1.804       .  S
C1752      C1753   1.408       .  A
C1753      C1754   1.403       .  A
C1753      H1760   1.084       .  S
C1754      S1756   1.799       .  S
S1755      H1758   1.406       .  S
S1756      H1757   1.406       .  S
C1761      C1762   1.404       .  A
C1761      C1766   1.422       .  A
C1762      C1763   1.414       .  A
C1762      H1771   1.083       .  S
C1763      C1764   1.418       .  A
C1763      S1767   1.805       .  S
C1764      C1765   1.401       .  A
C1765      C1766   1.406       .  A
C1765      H1772   1.084       .  S
C1766      S1768   1.805       .  S
S1767      H1770   1.407       .  S
S1768      H1769   1.407       .  S
C1773      C1774   1.409       .  A
C1773      C1778   1.421       .  A
C1774      C1775   1.416       .  A
C1774      H1783   1.083       .  S
C1775      C1776   1.418       .  A
C1775      S1779   1.801       .  S
C1776      C1777   1.407       .  A
C1777      C1778   1.409       .  A
C1777      H1784   1.084       .  S
C1778      S1780   1.805       .  S
S1779      H1782   1.407       .  S
S1780      H1781   1.406       .  S
C1785      C1786   1.405       .  A
C1785      C1790   1.420       .  A
C1786      C1787   1.403       .  A
C1786      H1795   1.084       .  S
C1787      C1788   1.418       .  A
C1787      S1791   1.806       .  S
C1788      C1789   1.407       .  A
C1789      C1790   1.414       .  A
C1789      H1796   1.084       .  S
C1790      S1792   1.799       .  S
S1791      H1794   1.406       .  S
S1792      H1793   1.406       .  S
C1797      C1798   1.411       .  A
C1797      C1802   1.416       .  A
C1798      C1799   1.410       .  A
C1798      H1807   1.081       .  S
C1799      C1800   1.410       .  A
C1799      S1803   1.805       .  S
C1800      C1801   1.408       .  A
C1801      C1802   1.407       .  A
C1801      H1808   1.083       .  S
C1802      S1804   1.808       .  S
S1803      H1806   1.406       .  S
S1804      H1805   1.407       .  S
C1809      C1810   1.408       .  A
C1809      C1814   1.417       .  A
C1810      C1811   1.400   1_655  A
C1810      H1819   1.084       .  S
C1811      C1812   1.410       .  A
C1811      S1815   1.801       .  S
C1812      C1813   1.410   1_455  A
C1813      C1814   1.409       .  A
C1813      H1820   1.084   1_655  S
C1814      S1816   1.800       .  S
S1815      H1818   1.404       .  S
S1816      H1817   1.406       .  S
C1821      C1822   1.406       .  A
C1821      C1826   1.415       .  A
C1822      C1823   1.399       .  A
C1822      H1831   1.084       .  S
C1823      C1824   1.409       .  A
C1823      S1827   1.809       .  S
C1824      C1825   1.410       .  A
C1825      C1826   1.412       .  A
C1825      H1832   1.084       .  S
C1826      S1828   1.802       .  S
S1827      H1830   1.406       .  S
S1828      H1829   1.404       .  S
C1833      C1834   1.406       .  A
C1833      C1838   1.414       .  A
C1834      C1835   1.406       .  A
C1834      H1843   1.084       .  S
C1835      C1836   1.414       .  A
C1835      S1839   1.798       .  S
C1836      C1837   1.407       .  A
C1837      C1838   1.404       .  A
C1837      H1844   1.084       .  S
C1838      S1840   1.804       .  S
S1839      H1842   1.404       .  S
S1840      H1841   1.405       .  S
C1845      C1846   1.402       .  A
C1845      C1850   1.422       .  A
C1846      C1847   1.409       .  A
C1846      H1855   1.084       .  S
C1847      C1848   1.425       .  A
C1847      S1851   1.806       .  S
C1848      C1849   1.404       .  A
C1849      C1850   1.412       .  A
C1849      H1856   1.084       .  S
C1850      S1852   1.800       .  S
S1851      H1854   1.407       .  S
S1852      H1853   1.403       .  S
C1857      C1858   1.404       .  A
C1857      C1862   1.430       .  A
C1858      C1859   1.403       .  A
C1858      H1867   1.083       .  S
C1859      C1860   1.420       .  A
C1859      S1863   1.806       .  S
C1860      C1861   1.399       .  A
C1861      C1862   1.409       .  A
C1861      H1868   1.084       .  S
C1862      S1864   1.800       .  S
S1863      H1866   1.407       .  S
S1864      H1865   1.408       .  S
C1869      C1870   1.399       .  A
C1869      C1874   1.424       .  A
C1870      C1871   1.409       .  A
C1870      H1879   1.083       .  S
C1871      C1872   1.423       .  A
C1871      S1875   1.809   1_655  S
C1872      C1873   1.401       .  A
C1873      C1874   1.413       .  A
C1873      H1880   1.083       .  S
C1874      S1876   1.804       .  S
S1875      H1878   1.407       .  S
S1876      H1877   1.407       .  S
C1881      C1882   1.409   1_455  A
C1881      C1886   1.413   1_455  A
C1882      C1883   1.411       .  A
C1882      H1891   1.084       .  S
C1883      C1884   1.420       .  A
C1883      S1887   1.798       .  S
C1884      C1885   1.409       .  A
C1885      C1886   1.403       .  A
C1885      H1892   1.084       .  S
C1886      S1888   1.803   1_655  S
S1887      H1890   1.407       .  S
S1888      H1889   1.405       .  S
C1893      C1894   1.412       .  A
C1893      C1898   1.413       .  A
C1894      C1895   1.408       .  A
C1894      H1903   1.084       .  S
C1895      C1896   1.414       .  A
C1895      S1899   1.807       .  S
C1896      C1897   1.412       .  A
C1897      C1898   1.409       .  A
C1897      H1904   1.084       .  S
C1898      S1900   1.802       .  S
S1899      H1902   1.402       .  S
S1900      H1901   1.407       .  S
C1905      C1906   1.418       .  A
C1905      C1910   1.409       .  A
C1906      C1907   1.414       .  A
C1906      H1915   1.084       .  S
C1907      C1908   1.412       .  A
C1907      S1911   1.798       .  S
C1908      C1909   1.414       .  A
C1909      C1910   1.398       .  A
C1909      H1916   1.084       .  S
C1910      S1912   1.803       .  S
S1911      H1914   1.406       .  S
S1912      H1913   1.407       .  S
C1917      C1918   1.405       .  A
C1917      C1922   1.411       .  A
C1918      C1919   1.405       .  A
C1918      H1927   1.084       .  S
C1919      C1920   1.414       .  A
C1919      S1923   1.799       .  S
C1920      C1921   1.415       .  A
C1921      C1922   1.409       .  A
C1921      H1928   1.084       .  S
C1922      S1924   1.803       .  S
S1923      H1926   1.404       .  S
S1924      H1925   1.403       .  S
C1929      C1930   1.402       .  A
C1929      C1934   1.407       .  A
C1930      C1931   1.403       .  A
C1930      H1939   1.083       .  S
C1931      C1932   1.409       .  A
C1931      S1935   1.805       .  S
C1932      C1933   1.402       .  A
C1933      C1934   1.396       .  A
C1933      H1940   1.084       .  S
C1934      S1936   1.807       .  S
S1935      H1938   1.407       .  S
S1936      H1937   1.407       .  S
C1941      C1942   1.401       .  A
C1941      C1946   1.421       .  A
C1942      C1943   1.389       .  A
C1942      H1951   1.084       .  S
C1943      C1944   1.410       .  A
C1943      S1947   1.805       .  S
C1944      C1945   1.400       .  A
C1945      C1946   1.401       .  A
C1945      H1952   1.084       .  S
C1946      S1948   1.803       .  S
S1947      H1950   1.407       .  S
S1948      H1949   1.399       .  S
C1953      C1954   1.407       .  A
C1953      C1958   1.415       .  A
C1954      C1955   1.412       .  A
C1954      H1963   1.084       .  S
C1955      C1956   1.418       .  A
C1955      S1959   1.803       .  S
C1956      C1957   1.408       .  A
C1957      C1958   1.406       .  A
C1957      H1964   1.083       .  S
C1958      S1960   1.808       .  S
S1959      H1962   1.400       .  S
S1960      H1961   1.407       .  S
C1965      C1966   1.398       .  A
C1965      C1970   1.412       .  A
C1966      C1967   1.391       .  A
C1966      H1975   1.085       .  S
C1967      C1968   1.414       .  A
C1967      S1971   1.806       .  S
C1968      C1969   1.404       .  A
C1969      C1970   1.404       .  A
C1969      H1976   1.084       .  S
C1970      S1972   1.802       .  S
S1971      H1974   1.406       .  S
S1972      H1973   1.406       .  S
C1977      C1978   1.400       .  A
C1977      C1982   1.414       .  A
C1978      C1979   1.405       .  A
C1978      H1987   1.084       .  S
C1979      C1980   1.422       .  A
C1979      S1983   1.802       .  S
C1980      C1981   1.405       .  A
C1981      C1982   1.405       .  A
C1981      H1988   1.082       .  S
C1982      S1984   1.808       .  S
S1983      H1986   1.407       .  S
S1984      H1985   1.407       .  S
C1989      C1990   1.409       .  A
C1989      C1994   1.417       .  A
C1990      C1991   1.403       .  A
C1990      H1999   1.083       .  S
C1991      C1992   1.412       .  A
C1991      S1995   1.803       .  S
C1992      C1993   1.411       .  A
C1993      C1994   1.418       .  A
C1993      H2000   1.083       .  S
C1994      S1996   1.805       .  S
S1995      H1998   1.407       .  S
S1996      H1997   1.407       .  S
