geometry optimzed in LAMMPS
_audit_creation_date              2020-11-30 
_audit_creation_method            'lammps2cif' 
_symmetry_space_group_name_H-M    'P1' 
_symmetry_Int_Tables_number       1 
_symmetry_cell_setting            triclinic 
loop_ 
_symmetry_equiv_pos_as_xyz 
  x,y,z 
_cell_length_a                    30.11868255 
_cell_length_b                    29.904713434376287 
_cell_length_c                    30.178727900930586 
_cell_angle_alpha                 89.32096583293722 
_cell_angle_beta                  89.80177481044394 
_cell_angle_gamma                 90.0901230139627 
loop_ 
_atom_site_label 
_atom_site_type_symbol 
_atom_site_fract_x 
_atom_site_fract_y 
_atom_site_fract_z 
_atom_site_charge 
O1          O  0.50837007  0.45729112  0.71620636    -0.78700
C2          C  0.63081383  0.49524533  0.62616390     0.82400
O3          O  0.63016697  0.55336225  0.75451203    -0.79800
O4          O  0.59165835  0.61322276  0.60013035    -0.81300
O5          O  0.44957760  0.59555668  0.64331652    -0.81100
O6          O  0.46193360  0.51023335  0.73836835    -0.79700
Zn7        Zn  0.56125943  0.49657047  0.70153271     1.55700
O8          O  0.49615245  0.58341604  0.58658657    -0.81100
Cd9        Cd  0.48143668  0.56411446  0.69737916     1.59700
Cd10       Cd  0.58832986  0.59607922  0.71182778     1.59600
O11         O  0.47539301  0.61669265  0.73898853    -0.81100
O12         O  0.54525543  0.55536028  0.68255780    -1.91600
Cd13       Cd  0.55417491  0.55997155  0.61760268     1.59900
O14         O  0.54313324  0.64678298  0.73247344    -0.81000
O15         O  0.60530958  0.51608809  0.59897005    -0.79700
C16         C  0.61984486  0.51444366  0.77043129     0.82900
C17         C  0.48319247  0.47388292  0.74615246     0.82500
O18         O  0.61663585  0.48197729  0.66427114    -0.78600
C19         C  0.46275396  0.60380773  0.60365027     0.83300
O20         O  0.58232598  0.49820750  0.76246380    -0.78700
C21         C  0.50055715  0.65046570  0.73659374     0.83400
C22         C  0.62251804  0.63344975  0.61977233     0.83800
O23         O  0.62852792  0.62880207  0.66174796    -0.81200
O24         O  0.76558485  0.52805377  0.34826607    -0.78700
C25         C  0.85284984  0.66724306  0.34720742     0.82400
O26         O  0.88521778  0.51592777  0.42251557    -0.79800
O27         O  0.84725204  0.67283808  0.47513243    -0.81300
O28         O  0.69594218  0.62412461  0.46399044    -0.81100
O29         O  0.72630583  0.51780500  0.41044470    -0.79700
Zn30       Zn  0.80610269  0.57905398  0.36719803     1.55700
O31         O  0.74537578  0.67938814  0.46920140    -0.81100
Cd32       Cd  0.73926443  0.57368673  0.44603357     1.59700
Cd33       Cd  0.84467434  0.55820435  0.46812869     1.59600
O34         O  0.73748141  0.54683407  0.50652499    -0.81100
O35         O  0.80011389  0.59131654  0.42948536    -1.91600
Cd36       Cd  0.80013507  0.65680746  0.43265632     1.59900
O37         O  0.80653056  0.52657135  0.52299582    -0.81000
O38         O  0.83416146  0.68632939  0.37996890    -0.79700
C39         C  0.88224016  0.51559655  0.37965048     0.82900
C40         C  0.74261493  0.50311250  0.37445556     0.82500
O41         O  0.83887249  0.62956340  0.33297204    -0.78600
C42         C  0.70931181  0.66025509  0.48177156     0.83300
O43         O  0.85415659  0.53942919  0.36016045    -0.78700
C44         C  0.76463054  0.52882490  0.53271914     0.83400
C45         C  0.87726710  0.65358899  0.49713845     0.83800
O46         O  0.88250471  0.61083737  0.49765013    -0.81200
O47         O  0.85168746  0.43417585  0.22447777    -0.78700
C48         C  0.75199852  0.39246311  0.10216496     0.82400
O49         O  0.76723530  0.32819996  0.27947336    -0.79800
O50         O  0.76867399  0.26689470  0.12057483    -0.81300
O51         O  0.92304600  0.29491403  0.15376548    -0.81100
O52         O  0.90733896  0.38590532  0.23652492    -0.79700
Zn53       Zn  0.80229363  0.39469439  0.19432315     1.55700
O54         O  0.87230991  0.28282401  0.10114024    -0.81100
Cd55       Cd  0.88635491  0.32837976  0.20272063     1.59700
Cd56       Cd  0.78752092  0.29263442  0.22336053     1.59600
O57         O  0.89334209  0.27785229  0.24707655    -0.81100
O58         O  0.82304558  0.33456453  0.18624726    -1.91600
Cd59       Cd  0.81507210  0.31514503  0.12419544     1.59900
O60         O  0.83064560  0.23907320  0.23878919    -0.81000
O61         O  0.77547987  0.35989090  0.08817215    -0.79700
C62         C  0.75895957  0.37008539  0.28105224     0.82900
C63         C  0.88834856  0.42347469  0.24381403     0.82500
O64         O  0.76009624  0.41073804  0.13989233    -0.78600
C65         C  0.91049263  0.27546983  0.11834709     0.83300
O66         O  0.76478485  0.39590962  0.24788573    -0.78700
C67         C  0.87204346  0.24126250  0.24829577     0.83400
C68         C  0.73329260  0.26445771  0.14319211     0.83800
O69         O  0.73255000  0.27412108  0.18437118    -0.81200
C70         C  0.69018605  0.47064959  0.02899960     0.80100
N71         N  0.71949495  0.45300838  0.05829627    -0.78200
C72         C  0.71555681  0.41037293  0.07305574     0.82500
N73         N  0.68126367  0.38422935  0.05707722    -0.78200
C74         C  0.64969228  0.40224365  0.02886076     0.82600
N75         N  0.65561001  0.44535940  0.01457213    -0.79900
C76         C  0.97232977  0.49574098  0.29905812     0.80100
N77         N  0.95109925  0.46947085  0.26922716    -0.78200
C78         C  0.90948302  0.45409637  0.27690355     0.82500
N79         N  0.88898716  0.46510063  0.31598522    -0.78200
C80         C  0.91033847  0.49005722  0.34769866     0.82600
N81         N  0.95187082  0.50587810  0.33820071    -0.79900
O82         O  0.57527695  0.18845852  0.87737921    -0.78700
C83         C  0.64848865  0.24691380  0.00420683     0.82400
O84         O  0.48990067  0.26856230  0.97900711    -0.79800
O85         O  0.63382130  0.37306137  0.95935937    -0.81300
O86         O  0.61183939  0.35359189  0.83177901    -0.81100
O87         O  0.57431170  0.23953453  0.82451591    -0.79700
Zn88       Zn  0.57913468  0.22544945  0.93290682     1.55700
O89         O  0.67278874  0.34660739  0.87267043    -0.81100
Cd90       Cd  0.57118223  0.30125980  0.85397886     1.59700
Cd91       Cd  0.54218661  0.31725892  0.96048014     1.59600
O92         O  0.51115515  0.33076032  0.84879485    -0.81100
O93         O  0.58223603  0.28799987  0.91741336    -1.91600
Cd94       Cd  0.64196102  0.31449466  0.92818750     1.59900
O95         O  0.51744720  0.36406938  0.91460002    -0.81000
O96         O  0.66761687  0.27933530  0.98337347    -0.79700
C97         C  0.48824687  0.22580123  0.97288713     0.82900
C98         C  0.55453161  0.20826113  0.84591121     0.82500
O99         O  0.61931755  0.22197497  0.98592544    -0.78600
C100        C  0.65029320  0.36733011  0.84267741     0.83300
O101        O  0.52117550  0.20577520  0.95662496    -0.78700
C102        C  0.50770851  0.36497519  0.87301960     0.83400
C103        C  0.62145892  0.37321473  0.99930700     0.83800
O104        O  0.58670799  0.35001742  0.01068220    -0.81200
O105        O  0.43458203  0.05176695  0.97754740    -0.78700
C106        C  0.38945616  0.97584157  0.85178913     0.82400
O107        O  0.36176554  0.15124457  0.88525853    -0.79800
O108        O  0.25719080  0.01806695  0.87665025    -0.81300
O109        O  0.27217441  0.00805028  0.02103910    -0.81100
O110        O  0.38640470  0.05849230  0.03093198    -0.79700
Zn111      Zn  0.39933264  0.05161604  0.92135925     1.55700
O112        O  0.25603836  0.97443454  0.95759616    -0.81100
Cd113      Cd  0.32391464  0.05178585  0.00211749     1.59700
Cd114      Cd  0.30883104  0.10810253  0.90894180     1.59600
O115        O  0.28965944  0.10557986  0.02154344    -0.81100
O116        O  0.33557917  0.05225932  0.93645924    -1.91600
Cd117      Cd  0.30717521  0.99500561  0.91358746     1.59900
O118        O  0.26605558  0.13895410  0.95933807    -0.81000
O119        O  0.34966859  0.96356988  0.86278441    -0.79700
C120        C  0.40352169  0.14366849  0.87991398     0.82900
C121        C  0.41509341  0.07690977  0.00517762     0.82500
O122        O  0.41018755  0.00484270  0.87474948    -0.78600
C123        C  0.24419861  0.98882798  0.99568090     0.83300
O124        O  0.42067206  0.10710342  0.89234026    -0.78700
C125        C  0.26526110  0.13388343  0.00206279     0.83400
C126        C  0.27080844  0.04010925  0.84400120     0.83800
O127        O  0.28275987  0.08094602  0.84916161    -0.81200
C128        C  0.37244819  0.19365391  0.00574362     0.80100
N129        N  0.40902003  0.21775255  0.99313664    -0.78200
C130        C  0.44800551  0.19761829  0.98349642     0.82500
N131        N  0.45013445  0.15155324  0.98546794    -0.78200
C132        C  0.41347202  0.12665642  0.99749247     0.82600
N133        N  0.37539170  0.14830252  0.00783423    -0.79900
C134        C  0.44475300  0.22192595  0.79324913     0.80100
N135        N  0.41715672  0.19697189  0.81920500    -0.78200
C136        C  0.43314644  0.17555361  0.85581782     0.82500
N137        N  0.47799737  0.17748548  0.86487582    -0.78200
C138        C  0.50572964  0.20278268  0.83852631     0.82600
N139        N  0.48837632  0.22465534  0.80322911    -0.79900
C140        C  0.47550626  0.98145036  0.76412265     0.80100
N141        N  0.45737008  0.95970852  0.72935737    -0.78200
C142        C  0.41766374  0.93875076  0.73386466     0.82500
N143        N  0.39532576  0.94049720  0.77419775    -0.78200
C144        C  0.41357271  0.96262047  0.80953252     0.82600
N145        N  0.45369604  0.98234260  0.80338434    -0.79900
C146        C  0.00016769  0.87101152  0.26615649     0.80100
N147        N  0.00959535  0.90980107  0.24332908    -0.78200
C148        C  0.00582978  0.95025033  0.26302424     0.82500
N149        N  0.99441126  0.95208044  0.30678583    -0.78200
C150        C  0.98547561  0.91410426  0.33020243     0.82600
N151        N  0.98855196  0.87398460  0.30978799    -0.79900
C152        C  0.21042481  0.23112939  0.05412875     0.80100
N153        N  0.19577867  0.21357244  0.09323065    -0.78200
C154        C  0.20120038  0.16954112  0.10261166     0.82500
N155        N  0.22237011  0.14333672  0.07205383    -0.78200
C156        C  0.23683612  0.16089518  0.03216587     0.82600
N157        N  0.23044554  0.20484240  0.02357703    -0.79900
C158        C  0.11952665  0.99417958  0.98464248     0.80100
N159        N  0.16377979  0.98704291  0.97545467    -0.78200
C160        C  0.19543727  0.98936405  0.00787926     0.82500
N161        N  0.18190901  0.99929431  0.04988240    -0.78200
C162        C  0.13772913  0.00548490  0.05892999     0.82600
N163        N  0.10745988  0.00317793  0.02639218    -0.79900
C164        C  0.22157816  0.91804581  0.31462372     0.80100
N165        N  0.19230659  0.88978676  0.33544230    -0.78200
C166        C  0.14893439  0.90228921  0.33950261     0.82500
N167        N  0.13602661  0.94355385  0.32352339    -0.78200
C168        C  0.16558182  0.97193851  0.30336807     0.82600
N169        N  0.20784037  0.95819430  0.29842631    -0.79900
C170        C  0.97710325  0.22344661  0.02977835     0.80100
N171        N  0.94993992  0.25097808  0.05265079    -0.78200
C172        C  0.94058293  0.24348478  0.09584985     0.82500
N173        N  0.95784341  0.20628077  0.11670745    -0.78200
C174        C  0.98391742  0.17676093  0.09363395     0.82600
N175        N  0.99451076  0.18676215  0.05058490    -0.79900
C176        C  0.90620262  0.14165245  0.31228208     0.80100
N177        N  0.88051222  0.17413660  0.29363283    -0.78200
C178        C  0.89718475  0.20133054  0.26129092     0.82500
N179        N  0.94046353  0.19662152  0.24753370    -0.78200
C180        C  0.96544556  0.16244886  0.26407795     0.82600
N181        N  0.94696754  0.13442458  0.29440743    -0.79900
O182        O  0.03059223  0.17018549  0.21672416    -0.78700
C183        C  0.17682352  0.14931072  0.14123663     0.82400
O184        O  0.99657016  0.10592257  0.13502613    -0.79800
O185        O  0.14858191  0.01803337  0.13447336    -0.81300
O186        O  0.11963375  0.03716441  0.29418014    -0.81100
O187        O  0.03257942  0.12471827  0.27607280    -0.79700
Zn188      Zn  0.08248587  0.14488442  0.17811143     1.55700
O189        O  0.16745318  0.02000944  0.24014324    -0.81100
Cd190      Cd  0.07293757  0.07364002  0.25731135     1.59700
Cd191      Cd  0.04229654  0.05348011  0.15852895     1.59600
O192        O  0.02905437  0.02382358  0.26449752    -0.81100
O193        O  0.08792017  0.08315604  0.19465410    -1.91600
Cd194      Cd  0.14853951  0.06039113  0.18598598     1.59900
O195        O  0.02035498  0.99621919  0.19706447    -0.81000
O196        O  0.18641780  0.10937759  0.15345543    -0.79700
C197        C  0.01154755  0.14248552  0.11737109     0.82900
C198        C  0.01263777  0.15370162  0.25192305     0.82500
O199        O  0.14323540  0.17031958  0.15737196    -0.78600
C200        C  0.15072321  0.01269023  0.27867343     0.83300
O201        O  0.05245759  0.15140869  0.12022604    -0.78700
C202        C  0.01812492  0.99222190  0.23949605     0.83400
C203        C  0.12160934  0.01842473  0.10240460     0.83800
O204        O  0.08132487  0.03182739  0.10602468    -0.81200
O205        O  0.39902781  0.77426892  0.62619215    -0.78700
C206        C  0.39784791  0.91619661  0.69447259     0.82400
O207        O  0.33976648  0.75384026  0.72320817    -0.79800
O208        O  0.25767627  0.91095415  0.70055652    -0.81300
O209        O  0.26930991  0.85656547  0.55583597    -0.81100
O210        O  0.34412967  0.76118124  0.57861724    -0.79700
Zn211      Zn  0.37961104  0.82831406  0.66507654     1.55700
O212        O  0.27360563  0.91953576  0.59507514    -0.81100
Cd213      Cd  0.29848706  0.80941412  0.59854336     1.59700
Cd214      Cd  0.28842536  0.80707070  0.70879348     1.59600
O215        O  0.24248127  0.77591361  0.60941900    -0.81100
O216        O  0.31700079  0.83599260  0.65467624    -1.91600
Cd217      Cd  0.30444598  0.89959364  0.65307989     1.59900
O218        O  0.22453135  0.78193614  0.68115510    -0.81000
O219        O  0.35948082  0.92830018  0.68194721    -0.79700
C220        C  0.37885420  0.77030789  0.72765949     0.82900
C221        C  0.38138330  0.75055133  0.59596857     0.82500
O222        O  0.41699283  0.88304458  0.67640015    -0.78600
C223        C  0.25872394  0.89737551  0.56238319     0.83300
O224        O  0.38040001  0.81195597  0.72818996    -0.78700
C225        C  0.21478162  0.77144381  0.64064256     0.83400
C226        C  0.27492833  0.90809415  0.73861488     0.83800
O227        O  0.28862002  0.86890586  0.75166693    -0.81200
O228        O  0.99532497  0.93553554  0.40537835    -0.78700
C229        C  0.10868173  0.92032686  0.49662714     0.82400
O230        O  0.12360230  0.83760761  0.38487397    -0.79800
O231        O  0.07720924  0.81020516  0.53701364    -0.81300
O232        O  0.93294371  0.81186669  0.48393885    -0.81100
O233        O  0.94399581  0.88596871  0.39077392    -0.79700
Zn234      Zn  0.04870905  0.89941814  0.41908374     1.55700
O235        O  0.98074628  0.81826001  0.54012772    -0.81100
Cd236      Cd  0.96848434  0.83513132  0.43095235     1.59700
Cd237      Cd  0.07438101  0.79757950  0.42260862     1.59600
O238        O  0.96458827  0.78132695  0.39233882    -0.81100
O239        O  0.03197016  0.84394432  0.44555281    -1.91600
Cd240      Cd  0.03493078  0.85300721  0.51048212     1.59900
O241        O  0.03250488  0.75273782  0.38221808    -0.81000
O242        O  0.08342724  0.90135692  0.52550418    -0.79700
C243        C  0.11497053  0.87351442  0.36232836     0.82900
C244        C  0.97141227  0.91547481  0.37717513     0.82500
O245        O  0.09708328  0.92438250  0.45624820    -0.78600
C246        C  0.94716806  0.79954469  0.52178627     0.83300
O247        O  0.07588933  0.88849269  0.36172675    -0.78700
C248        C  0.98993559  0.75233213  0.37562283     0.83400
C249        C  0.10163696  0.77898803  0.52416611     0.83800
O250        O  0.10387355  0.76763745  0.48286659    -0.81200
C251        C  0.92606868  0.70186583  0.59616827     0.80100
N252        N  0.93649197  0.74421896  0.58261170    -0.78200
C253        C  0.92909576  0.75690131  0.54000422     0.82500
N254        N  0.91179060  0.72636125  0.51148401    -0.78200
C255        C  0.90331435  0.68339290  0.52495826     0.82600
N256        N  0.91028310  0.67154351  0.56744272    -0.79900
C257        C  0.21385693  0.98218705  0.48585047     0.80100
N258        N  0.24205767  0.95700423  0.51036013    -0.78200
C259        C  0.22749322  0.92030376  0.53239704     0.82500
N260        N  0.18323062  0.90927824  0.53109895    -0.78200
C261        C  0.15429510  0.93532250  0.50714064     0.82600
N262        N  0.17028561  0.97109321  0.48424774    -0.79900
C263        C  0.13359425  0.68835138  0.60184673     0.80100
N264        N  0.11423882  0.71204462  0.56846367    -0.78200
C265        C  0.12455384  0.75504478  0.56061490     0.82500
N266        N  0.15250838  0.77640512  0.58911227    -0.78200
C267        C  0.17107845  0.75433835  0.62468008     0.82600
N268        N  0.16190978  0.71000884  0.62994141    -0.79900
C269        C  0.95347545  0.68864697  0.27685006     0.80100
N270        N  0.91162643  0.67606502  0.28952670    -0.78200
C271        C  0.89615406  0.68566091  0.33063422     0.82500
N272        N  0.92343835  0.70780332  0.35906480    -0.78200
C273        C  0.96600250  0.71942834  0.34753155     0.82600
N274        N  0.98057643  0.71002721  0.30606129    -0.79900
C275        C  0.33752688  0.01625428  0.74597323     0.80100
N276        N  0.31964159  0.03515408  0.78207829    -0.78200
C277        C  0.28634371  0.01549751  0.80492624     0.82500
N278        N  0.27253561  0.97287336  0.79401564    -0.78200
C279        C  0.29096129  0.95220945  0.75794231     0.82600
N280        N  0.32080425  0.97620006  0.73324277    -0.79900
C281        C  0.63854229  0.19350335  0.11463736     0.80100
N282        N  0.66783249  0.21732348  0.13928234    -0.78200
C283        C  0.69350901  0.24928291  0.11993984     0.82500
N284        N  0.68880058  0.25889910  0.07568573    -0.78200
C285        C  0.65576513  0.23916305  0.05232302     0.82600
N286        N  0.62921865  0.20896607  0.07313189    -0.79900
C287        C  0.49151454  0.75724839  0.67868202     0.80100
N288        N  0.45139943  0.77304712  0.69152449    -0.78200
C289        C  0.42283796  0.74804624  0.71732654     0.82500
N290        N  0.43746628  0.70759346  0.73428132    -0.78200
C291        C  0.48050057  0.69422675  0.72512434     0.82600
N292        N  0.50543562  0.71852197  0.69668667    -0.79900
C293        C  0.45139926  0.69148709  0.51666362     0.80100
N294        N  0.46096027  0.65224084  0.53764366    -0.78200
C295        C  0.44350076  0.64260469  0.57839397     0.82500
N296        N  0.41728931  0.67420341  0.59869103    -0.78200
C297        C  0.40689902  0.71328797  0.57661830     0.82600
N298        N  0.42397158  0.72097334  0.53613924    -0.79900
C299        C  0.68567844  0.73169170  0.57835412     0.80100
N300        N  0.69847401  0.71809377  0.53749864    -0.78200
C301        C  0.68708739  0.67716870  0.52250018     0.82500
N302        N  0.66313247  0.64932166  0.54984784    -0.78200
C303        C  0.65105293  0.66250764  0.59163478     0.82600
N304        N  0.66211455  0.70399429  0.60546022    -0.79900
C305        C  0.49783117  0.48569412  0.86804038     0.80100
N306        N  0.49005064  0.49414786  0.82419047    -0.78200
C307        C  0.48828818  0.46053524  0.79397946     0.82500
N308        N  0.49359578  0.41720430  0.80852491    -0.78200
C309        C  0.49929878  0.40895892  0.85310262     0.82600
N310        N  0.50218668  0.44315841  0.88147271    -0.79900
C311        C  0.72558477  0.45795143  0.80047567     0.80100
N312        N  0.71090301  0.41820265  0.81766210    -0.78200
C313        C  0.66676185  0.41021460  0.82221376     0.82500
N314        N  0.63743014  0.44275756  0.80901060    -0.78200
C315        C  0.65185979  0.48335295  0.79267385     0.82600
N316        N  0.69606409  0.49029381  0.78830182    -0.79900
C317        C  0.75112903  0.47061071  0.64221111     0.80100
N318        N  0.76960381  0.49099702  0.60582948    -0.78200
C319        C  0.74417842  0.51038725  0.57432950     0.82500
N320        N  0.69883191  0.51061159  0.57994705    -0.78200
C321        C  0.67950958  0.49101187  0.61647193     0.82600
N322        N  0.70610670  0.47114377  0.64721986    -0.79900
C323        C  0.68360558  0.39693505  0.37204980     0.80100
N324        N  0.70370920  0.43337023  0.38948614    -0.78200
C325        C  0.73432161  0.45558599  0.36467045     0.82500
N326        N  0.75313309  0.43458985  0.32961255    -0.78200
C327        C  0.74243002  0.39096682  0.32152807     0.82600
N328        N  0.70857833  0.37138373  0.34437652    -0.79900
O329        O  0.14973689  0.38093632  0.45995499    -0.78700
C330        C  0.23261414  0.51781615  0.46096973     0.82400
O331        O  0.26452776  0.37018532  0.55505971    -0.79800
O332        O  0.24024546  0.51448254  0.59696880    -0.81300
O333        O  0.08418383  0.48120338  0.58857405    -0.81100
O334        O  0.08974413  0.38562476  0.50316261    -0.79700
Zn335      Zn  0.19187799  0.42781255  0.48535958     1.55700
O336        O  0.14091885  0.52925436  0.59389086    -0.81100
Cd337      Cd  0.11307649  0.42976037  0.55154761     1.59700
Cd338      Cd  0.21101129  0.40339841  0.59381859     1.59600
O339        O  0.09951833  0.38408676  0.59822271    -0.81100
O340        O  0.17821925  0.43942069  0.54643838    -1.91600
Cd341      Cd  0.19045887  0.50411254  0.55334609     1.59900
O342        O  0.16177279  0.36014870  0.62962919    -0.81000
O343        O  0.21776047  0.53499934  0.49673559    -0.79700
C344        C  0.27062059  0.37304471  0.51250479     0.82900
C345        C  0.11252206  0.36535053  0.47368670     0.82500
O346        O  0.22164463  0.47837412  0.44957177    -0.78600
C347        C  0.10418350  0.51322271  0.60822441     0.83300
O348        O  0.24403428  0.39387318  0.48804232    -0.78700
C349        C  0.11890318  0.35938555  0.62604006     0.83400
C350        C  0.24178456  0.49631226  0.63501274     0.83800
O351        O  0.23237225  0.45445225  0.64049454    -0.81200
O352        O  0.63208377  0.24047930  0.42250878    -0.78700
C353        C  0.72792560  0.11316831  0.42833461     0.82400
O354        O  0.76596091  0.24191344  0.33302807    -0.79800
O355        O  0.74443055  0.10996927  0.30265622    -0.81300
O356        O  0.58232095  0.13037144  0.29520008    -0.81100
O357        O  0.57552411  0.22535627  0.37744863    -0.79700
Zn358      Zn  0.68396571  0.20163252  0.39914480     1.55700
O359        O  0.64067088  0.08426690  0.29358082    -0.81100
Cd360      Cd  0.60825245  0.18727235  0.32820095     1.59700
Cd361      Cd  0.71147809  0.21327540  0.29392018     1.59600
O362        O  0.60071957  0.23440247  0.28151215    -0.81100
O363        O  0.67314765  0.18149579  0.33965861    -1.91600
Cd364      Cd  0.68701042  0.11679477  0.33610737     1.59900
O365        O  0.66699560  0.26137006  0.26082924    -0.81000
O366        O  0.71187266  0.09124736  0.39586868    -0.79700
C367        C  0.76689432  0.25034824  0.37495936     0.82900
C368        C  0.59238240  0.24789516  0.40918783     0.82500
O369        O  0.71669449  0.15362185  0.43547742    -0.78600
C370        C  0.60167345  0.09529025  0.28035763     0.83300
O371        O  0.73426291  0.24163084  0.39991118    -0.78700
C372        C  0.62404347  0.26231952  0.26005527     0.83400
C373        C  0.74849638  0.12176151  0.26267131     0.83800
O374        O  0.73461963  0.16044404  0.24955709    -0.81200
C375        C  0.52244471  0.30607151  0.49243733     0.80100
N376        N  0.51798429  0.34751473  0.47416310    -0.78200
C377        C  0.53685125  0.35818931  0.43457422     0.82500
N378        N  0.56051432  0.32571530  0.41267704    -0.78200
C379        C  0.56563919  0.28364082  0.43119886     0.82600
N380        N  0.54630560  0.27439042  0.47091862    -0.79900
O381        O  0.48886962  0.42186597  0.42794873    -0.78700
C382        C  0.38400990  0.54132078  0.39780190     0.82400
O383        O  0.37427385  0.37968259  0.34321667    -0.79800
O384        O  0.39487329  0.52793525  0.26801559    -0.81300
O385        O  0.54343289  0.50629283  0.28410487    -0.81100
O386        O  0.54073946  0.41377258  0.37619722    -0.79700
Zn387      Zn  0.44005028  0.45700481  0.39492237     1.55700
O388        O  0.48741272  0.55413082  0.27440755    -0.81100
Cd389      Cd  0.51615111  0.45515270  0.32531209     1.59700
Cd390      Cd  0.41468917  0.41864316  0.29548989     1.59600
O391        O  0.52912432  0.40572923  0.28433584    -0.81100
O392        O  0.45091456  0.46228751  0.33190262    -1.91600
Cd393      Cd  0.43959762  0.52585785  0.31566447     1.59900
O394        O  0.46429084  0.37665648  0.26340955    -0.81000
O395        O  0.40236481  0.55858352  0.36337843    -0.79700
C396        C  0.37197288  0.38415904  0.38571794     0.82900
C397        C  0.52268351  0.40115012  0.41246669     0.82500
O398        O  0.39954827  0.50637958  0.41682641    -0.78600
C399        C  0.52519364  0.53905755  0.26306901     0.83300
O400        O  0.39536616  0.41256966  0.40514550    -0.78700
C401        C  0.50725269  0.37680474  0.26387839     0.83400
C402        C  0.37298501  0.50230121  0.24363834     0.83800
O403        O  0.37497710  0.45924665  0.24827756    -0.81200
C404        C  0.61650733  0.57009975  0.18656142     0.80100
N405        N  0.59230184  0.55928611  0.22319426    -0.78200
C406        C  0.54789922  0.55788282  0.22302680     0.82500
N407        N  0.52635023  0.56719869  0.18410701    -0.78200
C408        C  0.55023753  0.57780310  0.14638865     0.82600
N409        N  0.59541557  0.57902620  0.14791288    -0.79900
C410        C  0.59277386  0.81333349  0.89351647     0.80100
N411        N  0.57234330  0.77652115  0.91136358    -0.78200
C412        C  0.55857241  0.77671618  0.95441882     0.82500
N413        N  0.56446935  0.81476036  0.97891841    -0.78200
C414        C  0.58346485  0.85216869  0.96021112     0.82600
N415        N  0.59786242  0.85047650  0.91800996    -0.79900
O416        O  0.40378868  0.58374752  0.00770960    -0.78700
C417        C  0.52777161  0.59647940  0.10691984     0.82400
O418        O  0.36539458  0.66420777  0.12727898    -0.79800
O419        O  0.51553764  0.72763894  0.10636108    -0.81300
O420        O  0.50197255  0.71933047  0.95395236    -0.81100
O421        O  0.41245731  0.63141495  0.95072130    -0.79700
Zn422      Zn  0.43878937  0.60904571  0.05959924     1.55700
O423        O  0.54498402  0.72485994  0.01314548    -0.81100
Cd424      Cd  0.44848977  0.68138381  0.98198939     1.59700
Cd425      Cd  0.40576164  0.70922302  0.08378886     1.59600
O426        O  0.40041480  0.72438841  0.97068824    -0.81100
O427        O  0.44938653  0.67153155  0.04779780    -1.91600
Cd428      Cd  0.51288580  0.68360868  0.05877508     1.59900
O429        O  0.36529266  0.74287280  0.03322701    -0.81000
O430        O  0.54518801  0.63093183  0.08861204    -0.79700
C431        C  0.36789282  0.62115465  0.13086030     0.82900
C432        C  0.39191492  0.59901174  0.96970415     0.82500
O433        O  0.48974947  0.58166041  0.09544311    -0.78600
C434        C  0.53462325  0.73742275  0.97418078     0.83300
O435        O  0.39434571  0.59978991  0.10649877    -0.78700
C436        C  0.36926162  0.74383440  0.99049677     0.83400
C437        C  0.49088684  0.75426015  0.12690733     0.83800
O438        O  0.44812091  0.75398257  0.12278891    -0.81200
C439        C  0.28680391  0.61610326  0.40899545     0.80100
N440        N  0.32908082  0.60174951  0.40260058    -0.78200
C441        C  0.33993977  0.55843113  0.41156432     0.82500
N442        N  0.30800206  0.52964428  0.42786755    -0.78200
C443        C  0.26535921  0.54405198  0.43425720     0.82600
N444        N  0.25575760  0.58695574  0.42489731    -0.79900
O445        O  0.57450665  0.98187238  0.11599314    -0.78700
C446        C  0.59622171  0.89192778  0.98620205     0.82400
O447        O  0.65876820  0.85742432  0.14294316    -0.79800
O448        O  0.70960865  0.86828370  0.01023021    -0.81300
O449        O  0.72391866  0.02782134  0.02940019    -0.81100
O450        O  0.62445564  0.03670237  0.11552592    -0.79700
Zn451      Zn  0.60310857  0.93388390  0.07668535     1.55700
O452        O  0.73713024  0.96721794  0.98893888    -0.81100
Cd453      Cd  0.67451310  0.00784690  0.07602996     1.59700
Cd454      Cd  0.70407548  0.90556953  0.11081058     1.59600
O455        O  0.71132646  0.01998470  0.12804552    -0.81100
O456        O  0.66543590  0.94299266  0.07107366    -1.91600
Cd457      Cd  0.68274169  0.92884427  0.01009238     1.59900
O458        O  0.73020746  0.95354661  0.15668937    -0.81000
O459        O  0.62825174  0.91610172  0.97154006    -0.79700
C460        C  0.61602939  0.85650196  0.13941508     0.82900
C461        C  0.59019771  0.01788812  0.13251769     0.82500
O462        O  0.57904735  0.89874424  0.02421711    -0.78600
C463        C  0.74831879  0.00596204  0.00189806     0.83300
O464        O  0.59564903  0.88470373  0.11605720    -0.78700
C465        C  0.72931993  0.99671416  0.15771700     0.83400
C466        C  0.74773723  0.86382570  0.02663289     0.83800
O467        O  0.75536470  0.87754200  0.06629079    -0.81200
C468        C  0.78475426  0.77681503  0.95199245     0.80100
N469        N  0.76957164  0.79766517  0.98861777    -0.78200
C470        C  0.77989007  0.84048947  0.99743020     0.82500
N471        N  0.80558160  0.86359711  0.96718022    -0.78200
C472        C  0.82166342  0.84332403  0.92953676     0.82600
N473        N  0.81119212  0.79945622  0.92233312    -0.79900
O474        O  0.00830517  0.19715135  0.47996844    -0.78700
C475        C  0.87971509  0.09529527  0.49810610     0.82400
O476        O  0.86555754  0.23550065  0.53936854    -0.79800
O477        O  0.89641198  0.10019817  0.63186303    -0.81300
O478        O  0.03308764  0.12412546  0.62324439    -0.81100
O479        O  0.04652306  0.21088739  0.54171448    -0.79700
Zn480      Zn  0.94701924  0.17271621  0.50280656     1.55700
O481        O  0.98542791  0.06786798  0.61520171    -0.81100
Cd482      Cd  0.00855547  0.17717925  0.58767612     1.59700
Cd483      Cd  0.90509397  0.20950531  0.59557607     1.59600
O484        O  0.01038705  0.22343094  0.63358299    -0.81100
O485        O  0.94798080  0.16739337  0.56668857    -1.91600
Cd486      Cd  0.93697656  0.10328370  0.58039354     1.59900
O487        O  0.94845228  0.26248169  0.62232163    -0.81000
O488        O  0.89650144  0.07684308  0.53259106    -0.79700
C489        C  0.87590037  0.23894941  0.49770921     0.82900
C490        C  0.04038685  0.21658170  0.50049179     0.82500
O491        O  0.89901266  0.12839813  0.47873784    -0.78600
C492        C  0.01909049  0.08523754  0.63381691     0.83300
O493        O  0.91139637  0.22263770  0.48280972    -0.78700
C494        C  0.98909428  0.25946929  0.63581930     0.83400
C495        C  0.87252044  0.12516336  0.65514198     0.83800
O496        O  0.86938789  0.16774874  0.64655885    -0.81200
C497        C  0.78329980  0.07828901  0.72832399     0.80100
N498        N  0.80429536  0.04217807  0.74649108    -0.78200
C499        C  0.84734694  0.03366416  0.73736043     0.82500
N500        N  0.86981728  0.06341695  0.71056268    -0.78200
C501        C  0.84919766  0.10010193  0.69173080     0.82600
N502        N  0.80545471  0.10684599  0.70035743    -0.79900
O503        O  0.91271359  0.02874882  0.89335137    -0.78700
C504        C  0.02933034  0.01486218  0.78397460     0.82400
O505        O  0.86623864  0.95813637  0.76647352    -0.79800
O506        O  0.99622760  0.89443954  0.76273944    -0.81300
O507        O  0.99450917  0.87582867  0.92383243    -0.81100
O508        O  0.91525042  0.97309983  0.94374955    -0.79700
Zn509      Zn  0.94231161  0.00369206  0.83755489     1.55700
O510        O  0.03556050  0.87317971  0.86189071    -0.81100
Cd511      Cd  0.94256503  0.92070281  0.90744236     1.59700
Cd512      Cd  0.89723280  0.90703671  0.81038626     1.59600
O513        O  0.88976566  0.88038731  0.92145681    -0.81100
O514        O  0.94594479  0.93962423  0.84376563    -1.91600
Cd515      Cd  0.00739424  0.92408103  0.82157914     1.59900
O516        O  0.85123730  0.87504013  0.85901622    -0.81000
O517        O  0.04519816  0.97763901  0.79768481    -0.79700
C518        C  0.87192230  0.00114300  0.76631509     0.82900
C519        C  0.90018668  0.01083327  0.93015866     0.82500
O520        O  0.99324507  0.03040883  0.79994589    -0.78600
C521        C  0.02491481  0.85753049  0.90023296     0.83300
O522        O  0.89833454  0.01923006  0.79300158    -0.78700
C523        C  0.85565527  0.86722190  0.90108365     0.83400
C524        C  0.97818512  0.85690540  0.76859846     0.83800
O525        O  0.93751163  0.85477511  0.78199607    -0.81200
O526        O  0.12538679  0.73000005  0.72913175    -0.78700
C527        C  0.25825136  0.64923445  0.70026978     0.82400
O528        O  0.13574111  0.59644551  0.78874455    -0.79800
O529        O  0.28400414  0.62403377  0.83307732    -0.81300
O530        O  0.25382701  0.77508299  0.83368868    -0.81100
O531        O  0.15541923  0.78799737  0.76248708    -0.79700
Zn532      Zn  0.17720158  0.68348753  0.72995416     1.55700
O533        O  0.30444674  0.72098060  0.82916775    -0.81100
Cd534      Cd  0.19567938  0.75085642  0.80581657     1.59700
Cd535      Cd  0.16982435  0.64570854  0.82977867     1.59600
O536        O  0.15264887  0.75528361  0.85674383    -0.81100
O537        O  0.20324382  0.68703429  0.78883827    -1.91600
Cd538      Cd  0.26971864  0.67545421  0.79064744     1.59900
O539        O  0.12655649  0.68661307  0.87033152    -0.81000
O540        O  0.28920930  0.66402884  0.72500852    -0.79700
C541        C  0.13235249  0.59498928  0.74609371     0.82900
C542        C  0.12099219  0.76802936  0.74784393     0.82500
O543        O  0.22880157  0.67717544  0.68733500    -0.78600
C544        C  0.29041729  0.75699059  0.84609680     0.83300
O545        O  0.14812098  0.62582947  0.72173853    -0.78700
C546        C  0.12587947  0.72922350  0.87649243     0.83400
C547        C  0.26224688  0.61135712  0.86710912     0.83800
O548        O  0.22006230  0.61717078  0.87067185    -0.81200
C549        C  0.02062388  0.75297653  0.81812522     0.80100
N550        N  0.06102023  0.74861919  0.79830220    -0.78200
C551        C  0.07609078  0.77827482  0.76730363     0.82500
N552        N  0.04941020  0.81385195  0.75559149    -0.78200
C553        C  0.00755276  0.81744458  0.77430476     0.82600
N554        N  0.99428763  0.78719579  0.80524921    -0.79900
C555        C  0.03936221  0.51987200  0.71352426     0.80100
N556        N  0.05046415  0.51100588  0.67066929    -0.78200
C557        C  0.08854473  0.52780269  0.65269541     0.82500
N558        N  0.11594709  0.55265168  0.67866426    -0.78200
C559        C  0.10603671  0.56073352  0.72207624     0.82600
N560        N  0.06714531  0.54485845  0.73901157    -0.79900
C561        C  0.26671374  0.53767042  0.74838427     0.80100
N562        N  0.25621170  0.58139536  0.74347120    -0.78200
C563        C  0.24899314  0.60001334  0.70348519     0.82500
N564        N  0.24655132  0.57236444  0.66767980    -0.78200
C565        C  0.25056226  0.52666143  0.67303342     0.82600
N566        N  0.26290056  0.50981985  0.71323027    -0.79900
C567        C  0.77513116  0.03193797  0.50812806     0.80100
N568        N  0.81830822  0.04429145  0.50952580    -0.78200
C569        C  0.83399482  0.07974493  0.48589215     0.82500
N570        N  0.80458599  0.10401468  0.46034397    -0.78200
C571        C  0.76062182  0.09082752  0.45796522     0.82600
N572        N  0.74667713  0.05486902  0.48176320    -0.79900
C573        C  0.10422256  0.26182172  0.40660601     0.80100
N574        N  0.11133810  0.30521822  0.41807144    -0.78200
C575        C  0.09878471  0.31988770  0.45889502     0.82500
N576        N  0.07740071  0.29080530  0.48752296    -0.78200
C577        C  0.07047303  0.24720445  0.47576321     0.82600
N578        N  0.08479489  0.23361489  0.43624123    -0.79900
C579        C  0.05187533  0.31551064  0.72168059     0.80100
N580        N  0.08745046  0.33230472  0.69846202    -0.78200
C581        C  0.08732021  0.33129768  0.65323763     0.82500
N582        N  0.05132652  0.31272112  0.63232702    -0.78200
C583        C  0.01560664  0.29599534  0.65543037     0.82600
N584        N  0.01678975  0.29752306  0.70002579    -0.79900
C585        C  0.55336849  0.79075577  0.22372940     0.80100
N586        N  0.51894451  0.77528189  0.19913659    -0.78200
C587        C  0.51667677  0.78451596  0.15533045     0.82500
N588        N  0.55075986  0.80806770  0.13630109    -0.78200
C589        C  0.58597447  0.82325889  0.16046516     0.82600
N590        N  0.58686624  0.81492359  0.20467859    -0.79900
C591        C  0.82049792  0.02913912  0.22843572     0.80100
N592        N  0.80764882  0.06893392  0.24555631    -0.78200
C593        C  0.76763584  0.08687598  0.23368121     0.82500
N594        N  0.74041141  0.06290187  0.20624846    -0.78200
C595        C  0.75352267  0.02187324  0.19107047     0.82600
N596        N  0.79313727  0.00597962  0.20229682    -0.79900
C597        C  0.29226411  0.82691287  0.94174761     0.80100
N598        N  0.31453610  0.80289074  0.97297140    -0.78200
C599        C  0.33821518  0.76668700  0.95989632     0.82500
N600        N  0.33496816  0.75212564  0.91663841    -0.78200
C601        C  0.31157742  0.77635385  0.88597564     0.82600
N602        N  0.29251063  0.81397775  0.89923327    -0.79900
C603        C  0.83125637  0.33500446  0.43416333     0.80100
N604        N  0.85274391  0.30930905  0.46455679    -0.78200
C605        C  0.84929093  0.26459190  0.46468029     0.82500
N606        N  0.82549485  0.24469232  0.43158656    -0.78200
C607        C  0.80525454  0.26991380  0.39888096     0.82600
N608        N  0.80704293  0.31517225  0.40178197    -0.79900
C609        C  0.27861042  0.56869412  0.20304664     0.80100
N610        N  0.30186755  0.53417989  0.22154263    -0.78200
C611        C  0.34504049  0.52722419  0.21123071     0.82500
N612        N  0.36538332  0.55715961  0.18317759    -0.78200
C613        C  0.34320429  0.59258608  0.16437791     0.82600
N614        N  0.29921934  0.59809397  0.17428808    -0.79900
C615        C  0.28652576  0.53580810  0.96097595     0.80100
N616        N  0.26620034  0.55659196  0.92662593    -0.78200
C617        C  0.28668735  0.58965212  0.90376578     0.82500
N618        N  0.32857640  0.60280876  0.91594224    -0.78200
C619        C  0.34943889  0.58206928  0.95092161     0.82600
N620        N  0.32782195  0.54884059  0.97324923    -0.79900
C621        C  0.51445862  0.02349759  0.22977273     0.80100
N622        N  0.53772379  0.04904379  0.25866695    -0.78200
C623        C  0.57771941  0.06690808  0.24717221     0.82500
N624        N  0.59445520  0.05904407  0.20533320    -0.78200
C625        C  0.57056911  0.03424714  0.17536525     0.82600
N626        N  0.53114506  0.01643823  0.18855430    -0.79900
C627        C  0.54775768  0.30438861  0.17466958     0.80100
N628        N  0.52349094  0.33392558  0.19811694    -0.78200
C629        C  0.53441113  0.34400021  0.23974690     0.82500
N630        N  0.57115957  0.32452929  0.25826102    -0.78200
C631        C  0.59695552  0.29521743  0.23484877     0.82600
N632        N  0.58357512  0.28391638  0.19345327    -0.79900
C633        C  0.31448407  0.28779856  0.43973842     0.80100
N634        N  0.29844007  0.30657592  0.47738368    -0.78200
C635        C  0.30521269  0.35029863  0.48586112     0.82500
N636        N  0.32767623  0.37521217  0.45454970    -0.78200
C637        C  0.34352210  0.35679462  0.41609770     0.82600
N638        N  0.33663525  0.31276929  0.40887443    -0.79900
C639        C  0.04675275  0.75452373  0.96804375     0.80100
N640        N  0.03083010  0.79511180  0.95455990    -0.78200
C641        C  0.04592677  0.81502352  0.91666011     0.82500
N642        N  0.07692144  0.79314255  0.89201355    -0.78200
C643        C  0.09219205  0.75169827  0.90451036     0.82600
N644        N  0.07722068  0.73273907  0.94280466    -0.79900
C645        C  0.82484693  0.09764099  0.97402635     0.80100
N646        N  0.86144585  0.07778692  0.95686641    -0.78200
C647        C  0.86298797  0.03216193  0.95462479     0.82500
N648        N  0.82655523  0.00704466  0.96817306    -0.78200
C649        C  0.78972553  0.02797035  0.98501675     0.82600
N650        N  0.79050980  0.07227265  0.98822645    -0.79900
C651        C  0.11345614  0.05584018  0.70244374     0.80100
N652        N  0.08784155  0.06608827  0.66743900    -0.78200
C653        C  0.04354727  0.06217632  0.66940120     0.82500
N654        N  0.02407539  0.04824509  0.70832747    -0.78200
C655        C  0.04986979  0.03688883  0.74431017     0.82600
N656        N  0.09485293  0.04075419  0.74101950    -0.79900
C657        C  0.66249081  0.43952953  0.19951048    -0.18000
C658        C  0.64909508  0.40901859  0.23253215    -0.20200
C659        C  0.64111090  0.42354499  0.27594491     0.20500
C660        C  0.64803980  0.46890612  0.28639836    -0.03100
C661        C  0.66526784  0.49850598  0.25441506    -0.06100
C662        C  0.66956871  0.48457220  0.20996690     0.20800
C663        C  0.67375044  0.54362890  0.26541758     0.18900
C664        C  0.66456142  0.55845536  0.30845261    -0.17600
C665        C  0.64522222  0.52933001  0.33971094    -0.19800
C666        C  0.63753252  0.48434740  0.32916862     0.20400
C667        C  0.62497731  0.45276714  0.36175342    -0.32900
C668        C  0.63809401  0.40797426  0.35435324     0.01100
C669        C  0.63108194  0.39329879  0.31066491    -0.24200
C670        C  0.67388295  0.51766764  0.17665902    -0.28800
C671        C  0.66484201  0.56196777  0.18884671     0.06800
C672        C  0.68128999  0.57444866  0.23054445    -0.27400
H673        H  0.66597131  0.42823775  0.16569971     0.11500
H674        H  0.64494122  0.37424487  0.22405075     0.12600
H675        H  0.66962755  0.59315928  0.31704999     0.11700
H676        H  0.63791896  0.54150403  0.37260128     0.11000
H677        H  0.62136512  0.46396091  0.39562897     0.16300
H678        H  0.63318690  0.35785887  0.30423471     0.12300
H679        H  0.67028338  0.50825023  0.14226334     0.15100
H680        H  0.68240925  0.60976603  0.23820591     0.14900
C681        C  0.87462356  0.43292061  0.59079156    -0.18000
C682        C  0.88004178  0.42691985  0.54508843    -0.20200
C683        C  0.84572753  0.40799465  0.51995646     0.20500
C684        C  0.80710891  0.39193450  0.54151040    -0.03100
C685        C  0.80340468  0.39441413  0.58765260    -0.06100
C686        C  0.83545477  0.41858005  0.61187907     0.20800
C687        C  0.76442859  0.37881186  0.60927734     0.18900
C688        C  0.73079158  0.35840362  0.58469664    -0.17600
C689        C  0.73372726  0.35768311  0.53847557    -0.19800
C690        C  0.77125347  0.37532394  0.51667982     0.20400
C691        C  0.77488802  0.37406923  0.47055918    -0.32900
C692        C  0.81719010  0.37812509  0.45123390     0.01100
C693        C  0.85011723  0.40202226  0.47408905    -0.24200
C694        C  0.82270998  0.43526542  0.65351290    -0.28800
C695        C  0.77692906  0.43369552  0.66355942     0.06800
C696        C  0.75642332  0.39304845  0.65278131    -0.27400
H697        H  0.89972178  0.45098695  0.60900175     0.11500
H698        H  0.91021445  0.43868254  0.52912606     0.12600
H699        H  0.70063329  0.34669201  0.60073065     0.11700
H700        H  0.70652700  0.34366788  0.51974140     0.11000
H701        H  0.74842827  0.35830617  0.45201486     0.16300
H702        H  0.88209472  0.40773331  0.45838685     0.12300
H703        H  0.84315733  0.46055615  0.66883693     0.15100
H704        H  0.72476820  0.38487308  0.66812272     0.14900
C705        C  0.85323415  0.55945078  0.78832659    -0.18000
C706        C  0.89763065  0.56738759  0.77768047    -0.20200
C707        C  0.92438507  0.53293834  0.76130736     0.20500
C708        C  0.90652489  0.48980399  0.75605611    -0.03100
C709        C  0.86210751  0.48130114  0.76846252    -0.06100
C710        C  0.83526002  0.51652404  0.78402148     0.20800
C711        C  0.84448922  0.43777198  0.76496718     0.18900
C712        C  0.87125820  0.40338734  0.74823416    -0.17600
C713        C  0.91490185  0.41224656  0.73438658    -0.19800
C714        C  0.93294948  0.45534524  0.73824119     0.20400
C715        C  0.97669304  0.46489744  0.72433377    -0.32900
C716        C  0.99468236  0.50786114  0.73021616     0.01100
C717        C  0.96856388  0.54110645  0.74964509    -0.24200
C718        C  0.79085057  0.50832047  0.79487841    -0.28800
C719        C  0.77311919  0.46512843  0.79167797     0.06800
C720        C  0.80015235  0.42978479  0.77728270    -0.27400
H721        H  0.83309692  0.58678916  0.80034255     0.11500
H722        H  0.91086253  0.60056358  0.78201497     0.12600
H723        H  0.85812753  0.36984237  0.74498082     0.11700
H724        H  0.93453918  0.38537148  0.72072139     0.11000
H725        H  0.99680932  0.43903405  0.70942450     0.16300
H726        H  0.98209201  0.57391771  0.75429637     0.12300
H727        H  0.77003176  0.53554700  0.80606343     0.15100
H728        H  0.78619656  0.39655401  0.77399900     0.14900
C729        C  0.40000971  0.60237901  0.80418377    -0.18000
C730        C  0.43505983  0.60434213  0.83397029    -0.20200
C731        C  0.43913228  0.57094412  0.86633758     0.20500
C732        C  0.40417836  0.53962893  0.87331735    -0.03100
C733        C  0.36893209  0.53781759  0.84358466    -0.06100
C734        C  0.36892036  0.56753964  0.80734302     0.20800
C735        C  0.33557619  0.50460389  0.84833531     0.18900
C736        C  0.33747399  0.47457624  0.88446782    -0.17600
C737        C  0.37373565  0.47539326  0.91353191    -0.19800
C738        C  0.40805989  0.50663570  0.90685090     0.20400
C739        C  0.44955173  0.50196477  0.92735586    -0.32900
C740        C  0.48581021  0.51870141  0.90248522     0.01100
C741        C  0.48031541  0.56210443  0.88582084    -0.24200
C742        C  0.33804557  0.56183604  0.77442811    -0.28800
C743        C  0.30303268  0.53109524  0.77958219     0.06800
C744        C  0.30142894  0.50233578  0.81661780    -0.27400
H745        H  0.39823636  0.62681337  0.77746475     0.11500
H746        H  0.46088359  0.62919907  0.82913881     0.12600
H747        H  0.31194206  0.44939720  0.88917529     0.11700
H748        H  0.37615342  0.45014924  0.93944691     0.11000
H749        H  0.45467101  0.47384155  0.94976290     0.16300
H750        H  0.50926446  0.58083843  0.87487635     0.12300
H751        H  0.33952341  0.58374520  0.74549699     0.15100
H752        H  0.27410708  0.47902479  0.82074946     0.14900
C753        C  0.64176159  0.88667468  0.56587274    -0.18000
C754        C  0.65490270  0.92996477  0.55384309    -0.20200
C755        C  0.69992169  0.94198039  0.55475201     0.20500
C756        C  0.73165940  0.91128907  0.57100847    -0.03100
C757        C  0.71850132  0.86759842  0.58282201    -0.06100
C758        C  0.67352307  0.85488322  0.57876093     0.20800
C759        C  0.75091275  0.83560565  0.59479847     0.18900
C760        C  0.79548126  0.84855378  0.59873335    -0.17600
C761        C  0.80842107  0.89214646  0.58771538    -0.19800
C762        C  0.77701923  0.92307624  0.57210868     0.20400
C763        C  0.79060515  0.96426009  0.55443094    -0.32900
C764        C  0.75962070  0.99308505  0.53432706     0.01100
C765        C  0.71411843  0.98285367  0.53672548    -0.24200
C766        C  0.66185693  0.80981484  0.58360088    -0.28800
C767        C  0.69483123  0.77762428  0.59082913     0.06800
C768        C  0.73877559  0.79057239  0.59860086    -0.27400
H769        H  0.60709833  0.87743329  0.56294643     0.11500
H770        H  0.63013110  0.95338553  0.54191503     0.12600
H771        H  0.82060830  0.82445078  0.60833688     0.11700
H772        H  0.84330266  0.90094111  0.58914148     0.11000
H773        H  0.82570570  0.97231823  0.55357387     0.16300
H774        H  0.68990580  0.00553136  0.52240628     0.12300
H775        H  0.62807050  0.79922687  0.57703724     0.15100
H776        H  0.76401816  0.76522317  0.60377297     0.14900
C777        C  0.54884192  0.67412538  0.33688068    -0.18000
C778        C  0.53253863  0.65935894  0.37791894    -0.20200
C779        C  0.51419544  0.68990519  0.40773349     0.20500
C780        C  0.51400891  0.73605557  0.39683737    -0.03100
C781        C  0.53069139  0.75098256  0.35571726    -0.06100
C782        C  0.54717018  0.71965147  0.32522999     0.20800
C783        C  0.52851369  0.79691963  0.34410612     0.18900
C784        C  0.51136885  0.82766099  0.37434517    -0.17600
C785        C  0.49497862  0.81284770  0.41522029    -0.19800
C786        C  0.49540292  0.76712564  0.42620913     0.20400
C787        C  0.47610167  0.75185736  0.46548410    -0.32900
C788        C  0.47450963  0.70585291  0.47590680     0.01100
C789        C  0.49464729  0.67506023  0.44752238    -0.24200
C790        C  0.55890751  0.73407557  0.28262640    -0.28800
C791        C  0.55425460  0.77914655  0.27046410     0.06800
C792        C  0.54080988  0.81079669  0.30142926    -0.27400
H793        H  0.56157904  0.64978771  0.31375482     0.11500
H794        H  0.53315590  0.62392398  0.38581930     0.12600
H795        H  0.50947446  0.86293054  0.36588635     0.11700
H796        H  0.48086849  0.83699318  0.43774523     0.11000
H797        H  0.46166298  0.77610991  0.48770946     0.16300
H798        H  0.49384228  0.63966195  0.45566276     0.12300
H799        H  0.56879490  0.70990972  0.25795193     0.15100
H800        H  0.53654756  0.84542676  0.29120384     0.14900
C801        C  0.56222729  0.89189182  0.75685104    -0.18000
C802        C  0.54585342  0.88606193  0.71411590    -0.20200
C803        C  0.55363324  0.84578091  0.69244103     0.20500
C804        C  0.58527542  0.81530252  0.70978241    -0.03100
C805        C  0.59916636  0.81961608  0.75381629    -0.06100
C806        C  0.58530674  0.85707468  0.77804095     0.20800
C807        C  0.61985241  0.78304924  0.77549608     0.18900
C808        C  0.63415085  0.74642732  0.75055227    -0.17600
C809        C  0.62231494  0.74318082  0.70589762    -0.19800
C810        C  0.59445520  0.77556037  0.68671043     0.20400
C811        C  0.56686967  0.76475317  0.65099718    -0.32900
C812        C  0.52425543  0.78428706  0.65217028     0.01100
C813        C  0.52372769  0.83026986  0.66049558    -0.24200
C814        C  0.58888707  0.85623345  0.82394987    -0.28800
C815        C  0.60242422  0.81702363  0.84603524     0.06800
C816        C  0.62053329  0.78151640  0.82201311    -0.27400
H817        H  0.55233063  0.92100270  0.77520012     0.11500
H818        H  0.52333647  0.91055719  0.70018734     0.12600
H819        H  0.65113275  0.71864256  0.76639177     0.11700
H820        H  0.62974419  0.71262556  0.68865120     0.11000
H821        H  0.57029259  0.73189696  0.63652519     0.16300
H822        H  0.49395763  0.84929755  0.65357249     0.12300
H823        H  0.57556680  0.88394969  0.84266357     0.15100
H824        H  0.63229399  0.75188839  0.83935666     0.14900
C825        C  0.69816708  0.14221126  0.97329344    -0.18000
C826        C  0.66372751  0.12796562  0.00156584    -0.20200
C827        C  0.67056456  0.12539274  0.04751280     0.20500
C828        C  0.71319447  0.13452285  0.06483964    -0.03100
C829        C  0.74788762  0.14765806  0.03650338    -0.06100
C830        C  0.74036226  0.15214363  0.99045048     0.20800
C831        C  0.79097297  0.15435586  0.05369468     0.18900
C832        C  0.79767077  0.15219775  0.09966992    -0.17600
C833        C  0.76214704  0.14235503  0.12827856    -0.19800
C834        C  0.71979662  0.13330433  0.11121802     0.20400
C835        C  0.68190809  0.13017801  0.13878771    -0.32900
C836        C  0.64154133  0.14326479  0.11882691     0.01100
C837        C  0.63462840  0.12236704  0.07759364    -0.24200
C838        C  0.77740799  0.15891210  0.96237117    -0.28800
C839        C  0.81922618  0.14619931  0.97942814     0.06800
C840        C  0.82689233  0.15773571  0.02379699    -0.27400
H841        H  0.69218986  0.14416377  0.93794973     0.11500
H842        H  0.63118241  0.12158310  0.98781469     0.12600
H843        H  0.83035814  0.15781484  0.11342901     0.11700
H844        H  0.76753805  0.14350222  0.16358282     0.11000
H845        H  0.68579840  0.13446835  0.17415830     0.16300
H846        H  0.60117463  0.12084511  0.06454526     0.12300
H847        H  0.77241368  0.15740673  0.92685292     0.15100
H848        H  0.86050215  0.15654002  0.03650324     0.14900
C849        C  0.25011886  0.03235814  0.61913809    -0.18000
C850        C  0.29643361  0.03101874  0.62010053    -0.20200
C851        C  0.31893016  0.05353216  0.65364372     0.20500
C852        C  0.29613683  0.08542918  0.67975265    -0.03100
C853        C  0.24971730  0.08404072  0.68119297    -0.06100
C854        C  0.22687044  0.05527756  0.65230059     0.20800
C855        C  0.22705380  0.10528215  0.71623365     0.18900
C856        C  0.25034229  0.13373522  0.74470074    -0.17600
C857        C  0.29671405  0.13587390  0.74277824    -0.19800
C858        C  0.31970303  0.10812982  0.71345690     0.20400
C859        C  0.36141265  0.09059015  0.72552511    -0.32900
C860        C  0.36620694  0.04487029  0.71563908     0.01100
C861        C  0.35895381  0.03644497  0.67057223    -0.24200
C862        C  0.18211931  0.04638105  0.65997361    -0.28800
C863        C  0.16072376  0.06390428  0.69725961     0.06800
C864        C  0.18248253  0.09459841  0.72434995    -0.27400
H865        H  0.23263447  0.01134886  0.59593137     0.11500
H866        H  0.31379467  0.00787784  0.59882693     0.12600
H867        H  0.23310643  0.15116291  0.77090365     0.11700
H868        H  0.31430779  0.15359954  0.76846699     0.11000
H869        H  0.37723492  0.10303996  0.75517431     0.16300
H870        H  0.37400600  0.00753948  0.65548035     0.12300
H871        H  0.16430755  0.02399434  0.63824168     0.15100
H872        H  0.16480658  0.10976560  0.75168388     0.14900
C873        C  0.91529577  0.70845541  0.11966090    -0.18000
C874        C  0.92837965  0.71937351  0.07634634    -0.20200
C875        C  0.97352436  0.72022393  0.06472597     0.20500
C876        C  0.00573704  0.70826179  0.09663163    -0.03100
C877        C  0.99257072  0.69801983  0.14056628    -0.06100
C878        C  0.94716437  0.69872157  0.15219254     0.20800
C879        C  0.02493073  0.68897326  0.17320898     0.18900
C880        C  0.06994257  0.68771344  0.16106642    -0.17600
C881        C  0.08294903  0.69706111  0.11733299    -0.19800
C882        C  0.05120846  0.70827116  0.08510059     0.20400
C883        C  0.06417487  0.72108384  0.04202522    -0.32900
C884        C  0.03238209  0.73537390  0.01098170     0.01100
C885        C  0.98712836  0.73428673  0.02226299    -0.24200
C886        C  0.93454238  0.69187837  0.19651886    -0.28800
C887        C  0.96676770  0.68597236  0.22970585     0.06800
C888        C  0.01184077  0.68336803  0.21766596    -0.27400
H889        H  0.88028828  0.70895121  0.12803669     0.11500
H890        H  0.90322032  0.72801794  0.05214640     0.12600
H891        H  0.09518172  0.68037027  0.18559004     0.11700
H892        H  0.11796603  0.69670736  0.10899708     0.11000
H893        H  0.09912609  0.72223304  0.03332061     0.16300
H894        H  0.96264331  0.74501946  0.99812783     0.12300
H895        H  0.89976672  0.69427868  0.20556581     0.15100
H896        H  0.03677394  0.67849147  0.24309300     0.14900
C897        C  0.25888094  0.64705453  0.57078575    -0.18000
C898        C  0.28538614  0.66290249  0.53576312    -0.20200
C899        C  0.26706148  0.66921319  0.49342677     0.20500
C900        C  0.22130696  0.66109223  0.48661334    -0.03100
C901        C  0.19502203  0.64469114  0.52147534    -0.06100
C902        C  0.21367693  0.63812726  0.56393831     0.20800
C903        C  0.14945052  0.63558580  0.51469942     0.18900
C904        C  0.13103561  0.64193898  0.47242320    -0.17600
C905        C  0.15753771  0.65759497  0.43722932    -0.19800
C906        C  0.20281751  0.66658403  0.44386803     0.20400
C907        C  0.23191760  0.67376654  0.40787237    -0.32900
C908        C  0.27710180  0.66400067  0.41502551     0.01100
C909        C  0.29422742  0.67699741  0.45616962    -0.24200
C910        C  0.18478862  0.62814915  0.59932044    -0.28800
C911        C  0.14020157  0.63966083  0.59333435     0.06800
C912        C  0.12274370  0.62624376  0.55217282    -0.27400
H913        H  0.27347591  0.64273520  0.60329735     0.11500
H914        H  0.32043955  0.66860944  0.54135457     0.12600
H915        H  0.09606970  0.63573940  0.46683637     0.11700
H916        H  0.14304978  0.66111365  0.40456532     0.11000
H917        H  0.21894207  0.67162891  0.37450001     0.16300
H918        H  0.32994706  0.67782261  0.46060118     0.12300
H919        H  0.19735337  0.62771158  0.63249229     0.15100
H920        H  0.08702528  0.62467759  0.54818367     0.14900
C921        C  0.35095436  0.12911724  0.44563519    -0.18000
C922        C  0.33633483  0.08526518  0.45260660    -0.20200
C923        C  0.29087580  0.07514858  0.45117726     0.20500
C924        C  0.25989663  0.10895164  0.44077014    -0.03100
C925        C  0.27456806  0.15309468  0.43399677    -0.06100
C926        C  0.32027135  0.16335127  0.43725650     0.20800
C927        C  0.24322252  0.18741614  0.42691989     0.18900
C928        C  0.19793155  0.17717892  0.42472426    -0.17600
C929        C  0.18335786  0.13328014  0.43077737    -0.19800
C930        C  0.21401347  0.09920461  0.43981435     0.20400
C931        C  0.19935934  0.05627506  0.45097728    -0.32900
C932        C  0.22986201  0.02350871  0.46458509     0.01100
C933        C  0.27563548  0.03248647  0.46268938    -0.24200
C934        C  0.33403107  0.20800319  0.43498028    -0.28800
C935        C  0.30242608  0.24193093  0.43063248     0.06800
C936        C  0.25746051  0.23173510  0.42518589    -0.27400
H937        H  0.38607279  0.13650540  0.44827584     0.11500
H938        H  0.36043744  0.05953681  0.46050394     0.12600
H939        H  0.17378013  0.20343264  0.41994968     0.11700
H940        H  0.14804492  0.12633051  0.43026626     0.11000
H941        H  0.16400460  0.04945170  0.45210549     0.16300
H942        H  0.29935653  0.00701511  0.47247385     0.12300
H943        H  0.36866353  0.21658636  0.43984192     0.15100
H944        H  0.23337490  0.25855993  0.42222735     0.14900
C945        C  0.03220845  0.64444526  0.75684357    -0.18000
C946        C  0.02053056  0.64369018  0.71223857    -0.20200
C947        C  0.97887467  0.65940984  0.69899851     0.20500
C948        C  0.94753508  0.67341399  0.73098094    -0.03100
C949        C  0.95980520  0.67459665  0.77561413    -0.06100
C950        C  0.00268639  0.66056852  0.78841333     0.20800
C951        C  0.93302262  0.69783106  0.80634475     0.18900
C952        C  0.89023031  0.71140235  0.79416994    -0.17600
C953        C  0.87684570  0.70808265  0.74997168    -0.19800
C954        C  0.90659511  0.69217476  0.71785393     0.20400
C955        C  0.89852500  0.69920725  0.67280642    -0.32900
C956        C  0.93133621  0.68851061  0.64177412     0.01100
C957        C  0.97006707  0.66642826  0.65429397    -0.24200
C958        C  0.01874913  0.67417353  0.82958280    -0.28800
C959        C  0.00072600  0.71459028  0.84375382     0.06800
C960        C  0.95389266  0.71486736  0.84432446    -0.27400
H961        H  0.06535324  0.63745772  0.76638597     0.11500
H962        H  0.04512896  0.63373702  0.68794643     0.12600
H963        H  0.86899158  0.72844402  0.81756189     0.11700
H964        H  0.84501971  0.72183734  0.74027306     0.11000
H965        H  0.86830942  0.71569536  0.66202039     0.16300
H966        H  0.99467790  0.65790359  0.62943068     0.12300
H967        H  0.05278312  0.66666323  0.83794250     0.15100
H968        H  0.93667201  0.73949649  0.86404362     0.14900
C969        C  0.97784507  0.27140096  0.36040505    -0.18000
C970        C  0.93906148  0.24899477  0.37357845    -0.20200
C971        C  0.93966023  0.20255610  0.38073680     0.20500
C972        C  0.98030106  0.17897589  0.37813105    -0.03100
C973        C  0.01920004  0.20153069  0.36550355    -0.06100
C974        C  0.01787656  0.24789601  0.35579722     0.20800
C975        C  0.05960028  0.17787059  0.36168094     0.18900
C976        C  0.06022935  0.13148593  0.37008100    -0.17600
C977        C  0.02067717  0.10843036  0.37996514    -0.19800
C978        C  0.98028202  0.13171406  0.38235196     0.20400
C979        C  0.93895174  0.10937536  0.37913484    -0.32900
C980        C  0.90346278  0.13501516  0.36166388     0.01100
C981        C  0.90007208  0.17742168  0.38110077    -0.24200
C982        C  0.05790399  0.27027495  0.34610228    -0.28800
C983        C  0.09724861  0.24933125  0.35998033     0.06800
C984        C  0.09886853  0.20253152  0.35369511    -0.27400
H985        H  0.97660640  0.30710851  0.35406222     0.11500
H986        H  0.90814327  0.26738168  0.37502380     0.12600
H987        H  0.09100869  0.11295064  0.36785523     0.11700
H988        H  0.02129257  0.07230369  0.38298898     0.11000
H989        H  0.93857697  0.07343667  0.37499079     0.16300
H990        H  0.86889154  0.19503734  0.37801541     0.12300
H991        H  0.05745599  0.30641250  0.34260390     0.15100
H992        H  0.13054595  0.18556168  0.35529837     0.14900
C993        C  0.09312300  0.23620375  0.85869071    -0.18000
C994        C  0.08043115  0.22018941  0.90073198    -0.20200
C995        C  0.04168622  0.23601953  0.92126450     0.20500
C996        C  0.01587226  0.26883484  0.89933273    -0.03100
C997        C  0.02880872  0.28520497  0.85710496    -0.06100
C998        C  0.06744333  0.26853130  0.83645423     0.20800
C999        C  0.00224614  0.31721225  0.83496420     0.18900
C1000       C  0.96359763  0.33320386  0.85535762    -0.17600
C1001       C  0.95099688  0.31725087  0.89723114    -0.19800
C1002       C  0.97674946  0.28493489  0.91929663     0.20400
C1003       C  0.96398305  0.26862723  0.96106398    -0.32900
C1004       C  0.98968106  0.23640181  0.98371184     0.01100
C1005       C  0.02836613  0.21986318  0.96332959    -0.24200
C1006       C  0.07831256  0.28281101  0.79311121    -0.28800
C1007       C  0.05062500  0.31301049  0.77031919     0.06800
C1008       C  0.01347839  0.33096890  0.79188389    -0.27400
H1009       H  0.12277364  0.22288032  0.84332627     0.11500
H1010       H  0.10075960  0.19512012  0.91704045     0.12600
H1011       H  0.94279580  0.35763412  0.83865863     0.11700
H1012       H  0.92087619  0.32994573  0.91222904     0.11000
H1013       H  0.93396053  0.28150036  0.97614549     0.16300
H1014       H  0.04860602  0.19532748  0.98055167     0.12300
H1015       H  0.10614069  0.26785087  0.77591419     0.15100
H1016       H  0.99162945  0.35343956  0.77384987     0.14900
C1017       C  0.33642168  0.92236312  0.20531691    -0.18000
C1018       C  0.37640744  0.94259822  0.19254628    -0.20200
C1019       C  0.40521027  0.95998813  0.22451198     0.20500
C1020       C  0.39431734  0.95567115  0.26988633    -0.03100
C1021       C  0.35403287  0.93502385  0.28281585    -0.06100
C1022       C  0.32460646  0.91918419  0.25025979     0.20800
C1023       C  0.34187187  0.93295972  0.32806282     0.18900
C1024       C  0.37121578  0.94934436  0.36005716    -0.17600
C1025       C  0.41137429  0.96936918  0.34725770    -0.19800
C1026       C  0.42276731  0.97358788  0.30223534     0.20400
C1027       C  0.46166016  0.99611879  0.28897754    -0.32900
C1028       C  0.47266119  0.00084419  0.24375510     0.01100
C1029       C  0.44428426  0.98232664  0.21180328    -0.24200
C1030       C  0.28224078  0.90437188  0.26287277    -0.28800
C1031       C  0.26830879  0.90702432  0.30721136     0.06800
C1032       C  0.29902704  0.91849271  0.34004532    -0.27400
H1033       H  0.31407344  0.91051039  0.17994151     0.11500
H1034       H  0.38434049  0.94554484  0.15758216     0.12600
H1035       H  0.36244951  0.94802195  0.39490534     0.11700
H1036       H  0.43299075  0.98264499  0.37254835     0.11000
H1037       H  0.48344457  0.00978008  0.31393578     0.16300
H1038       H  0.45231296  0.98570771  0.17687991     0.12300
H1039       H  0.25809047  0.89647948  0.23752409     0.15100
H1040       H  0.28786619  0.92161779  0.37408151     0.14900
C1041       C  0.15456107  0.94666109  0.86496686    -0.18000
C1042       C  0.19569755  0.92624877  0.86961022    -0.20200
C1043       C  0.20449881  0.89949183  0.90691765     0.20500
C1044       C  0.16984065  0.88544060  0.93510260    -0.03100
C1045       C  0.12814252  0.90515120  0.93008588    -0.06100
C1046       C  0.12300736  0.94046512  0.89842091     0.20800
C1047       C  0.09673056  0.90037116  0.96483529     0.18900
C1048       C  0.10284818  0.86752995  0.99781710    -0.17600
C1049       C  0.14376403  0.84566651  0.00114702    -0.19800
C1050       C  0.17852970  0.85736906  0.97208504     0.20400
C1051       C  0.22204737  0.84267933  0.97965909    -0.32900
C1052       C  0.25656469  0.85752720  0.95170566     0.01100
C1053       C  0.24771556  0.88823490  0.91740661    -0.24200
C1054       C  0.09575605  0.97634138  0.91011206    -0.28800
C1055       C  0.08374167  0.97764168  0.95482872     0.06800
C1056       C  0.06804746  0.93656066  0.97198277    -0.27400
H1057       H  0.15029813  0.97223536  0.83959493     0.11500
H1058       H  0.22175436  0.93444821  0.84641393     0.12600
H1059       H  0.07838989  0.86267470  0.02384745     0.11700
H1060       H  0.14945513  0.82288950  0.02872331     0.11000
H1061       H  0.22855821  0.81775055  0.00518831     0.16300
H1062       H  0.27438693  0.89896757  0.89537217     0.12300
H1063       H  0.09807861  0.00752110  0.89154350     0.15100
H1064       H  0.04809788  0.93662697  0.00196892     0.14900
C1065       C  0.18434178  0.35893946  0.95551519    -0.18000
C1066       C  0.19489265  0.40266641  0.94281353    -0.20200
C1067       C  0.22143173  0.42921770  0.97011415     0.20500
C1068       C  0.23579714  0.41261435  0.01154885    -0.03100
C1069       C  0.22440877  0.36887243  0.02475730    -0.06100
C1070       C  0.19972497  0.34152110  0.99592399     0.20800
C1071       C  0.23978890  0.35168672  0.06565738     0.18900
C1072       C  0.26530361  0.37874852  0.09346312    -0.17600
C1073       C  0.27724661  0.42198778  0.07996933    -0.19800
C1074       C  0.26345581  0.43881982  0.03868972     0.20400
C1075       C  0.27855225  0.48041071  0.02303932    -0.32900
C1076       C  0.26575682  0.49603946  0.98096729     0.01100
C1077       C  0.23581999  0.47114847  0.95553861    -0.24200
C1078       C  0.19293658  0.29657424  0.00696951    -0.28800
C1079       C  0.20964564  0.27921838  0.04676104     0.06800
C1080       C  0.23147722  0.30697257  0.07679839    -0.27400
H1081       H  0.16512434  0.33839451  0.93326517     0.11500
H1082       H  0.18361985  0.41517990  0.91094310     0.12600
H1083       H  0.27727244  0.36594086  0.12495736     0.11700
H1084       H  0.29819451  0.44181752  0.10129043     0.11000
H1085       H  0.30130872  0.49987758  0.04284937     0.16300
H1086       H  0.22601441  0.48297024  0.92290807     0.12300
H1087       H  0.17619170  0.27463272  0.98400857     0.15100
H1088       H  0.24484817  0.29287652  0.10722359     0.14900
C1089       C  0.94844925  0.90286549  0.15216157    -0.18000
C1090       C  0.92834113  0.94465308  0.15693745    -0.20200
C1091       C  0.90344546  0.95404780  0.19519110     0.20500
C1092       C  0.89321820  0.91944280  0.22575016    -0.03100
C1093       C  0.91135420  0.87680600  0.21974656    -0.06100
C1094       C  0.94355668  0.87054401  0.18577613     0.20800
C1095       C  0.90819774  0.84459963  0.25465326     0.18900
C1096       C  0.87937964  0.85198702  0.29035234    -0.17600
C1097       C  0.86023536  0.89416677  0.29558204    -0.19800
C1098       C  0.86931656  0.92871489  0.26489875     0.20400
C1099       C  0.85451155  0.97227926  0.27239128    -0.32900
C1100       C  0.86070979  0.00566782  0.23992151     0.01100
C1101       C  0.88834211  0.99734469  0.20334894    -0.24200
C1102       C  0.97855153  0.84053699  0.19513885    -0.28800
C1103       C  0.98397995  0.83075234  0.24060261     0.06800
C1104       C  0.94405962  0.81468625  0.25951345    -0.27400
H1105       H  0.97217039  0.89816449  0.12555836     0.11500
H1106       H  0.93510529  0.97064831  0.13251344     0.12600
H1107       H  0.87636729  0.82754517  0.31699359     0.11700
H1108       H  0.84081099  0.90062606  0.32510063     0.11000
H1109       H  0.83253273  0.97859474  0.30018322     0.16300
H1110       H  0.89244335  0.02302875  0.17794630     0.12300
H1111       H  0.00753082  0.84041587  0.17375199     0.15100
H1112       H  0.94582640  0.79434667  0.28935507     0.14900
C1113       C  0.63297552  0.07597466  0.66920832    -0.18000
C1114       C  0.58990049  0.05886117  0.67350067    -0.20200
C1115       C  0.57457718  0.04257571  0.71460299     0.20500
C1116       C  0.60208564  0.04569822  0.75224495    -0.03100
C1117       C  0.64561300  0.06245294  0.74784265    -0.06100
C1118       C  0.66147826  0.07667427  0.70587036     0.20800
C1119       C  0.67414996  0.06217874  0.78485019     0.18900
C1120       C  0.65818702  0.04807444  0.82642944    -0.17600
C1121       C  0.61476860  0.03226378  0.83095411    -0.19800
C1122       C  0.58693504  0.02996795  0.79388537     0.20400
C1123       C  0.54484889  0.01060525  0.79746143    -0.32900
C1124       C  0.51824924  0.00513098  0.75974319     0.01100
C1125       C  0.53290845  0.02184046  0.71850446    -0.24200
C1126       C  0.70644437  0.08780862  0.70066134    -0.28800
C1127       C  0.73560218  0.08300459  0.73652373     0.06800
C1128       C  0.71900058  0.07260775  0.77890732    -0.27400
H1129       H  0.64458639  0.08694958  0.63683469     0.11500
H1130       H  0.56900961  0.05720711  0.64440891     0.12600
H1131       H  0.67971024  0.04790707  0.85513818     0.11700
H1132       H  0.60345231  0.02041804  0.86314306     0.11000
H1133       H  0.53366809  0.99776157  0.82935548     0.16300
H1134       H  0.51208651  0.01838494  0.68951038     0.12300
H1135       H  0.71952080  0.09556491  0.66793148     0.15100
H1136       H  0.74173352  0.06923269  0.80655439     0.14900
C1137       C  0.47210415  0.35182001  0.64059765    -0.18000
C1138       C  0.45818102  0.34043160  0.68350162    -0.20200
C1139       C  0.44694283  0.29606508  0.69427593     0.20500
C1140       C  0.44758257  0.26322829  0.66102107    -0.03100
C1141       C  0.46267737  0.27449757  0.61803628    -0.06100
C1142       C  0.47565587  0.31887469  0.60804732     0.20800
C1143       C  0.46709963  0.24089588  0.58584739     0.18900
C1144       C  0.45381691  0.19694986  0.59606519    -0.17600
C1145       C  0.43838377  0.18584948  0.63855957    -0.19800
C1146       C  0.43635252  0.21846805  0.67155559     0.20400
C1147       C  0.42729842  0.20640662  0.71568701    -0.32900
C1148       C  0.43149629  0.23807800  0.74935168     0.01100
C1149       C  0.43901160  0.28316793  0.73837177    -0.24200
C1150       C  0.49373329  0.32914388  0.56632411    -0.28800
C1151       C  0.50037991  0.29538885  0.53498688     0.06800
C1152       C  0.48625564  0.25150719  0.54462724    -0.27400
H1153       H  0.48173447  0.38607069  0.63335190     0.11500
H1154       H  0.45765238  0.36602429  0.70862777     0.12600
H1155       H  0.45658043  0.17088698  0.57157252     0.11700
H1156       H  0.42979389  0.15137873  0.64612616     0.11000
H1157       H  0.42269976  0.17143958  0.72448982     0.16300
H1158       H  0.44310164  0.30728661  0.76462636     0.12300
H1159       H  0.50445175  0.36306305  0.55894793     0.15100
H1160       H  0.49055879  0.22556166  0.52019599     0.14900
C1161       C  0.43687054  0.33433050  0.06606821    -0.18000
C1162       C  0.39514376  0.32301235  0.04926455    -0.20200
C1163       C  0.37631360  0.28136155  0.05986769     0.20500
C1164       C  0.39743819  0.25290555  0.09118860    -0.03100
C1165       C  0.44018160  0.26311786  0.10603818    -0.06100
C1166       C  0.46027968  0.30382496  0.09295686     0.20800
C1167       C  0.46345190  0.23176890  0.13241858     0.18900
C1168       C  0.44272016  0.19169135  0.14575318    -0.17600
C1169       C  0.39986087  0.18165292  0.13126355    -0.19800
C1170       C  0.37786718  0.21120754  0.10244813     0.20400
C1171       C  0.34143040  0.19697561  0.07733860    -0.32900
C1172       C  0.33894456  0.21603652  0.03459005     0.01100
C1173       C  0.34219915  0.26302604  0.03390690    -0.24200
C1174       C  0.50260425  0.31404086  0.10870840    -0.28800
C1175       C  0.52421268  0.28450071  0.13801465     0.06800
C1176       C  0.50622460  0.24204524  0.14678854    -0.27400
H1177       H  0.45161624  0.36611916  0.05659724     0.11500
H1178       H  0.37914393  0.34536305  0.02576955     0.12600
H1179       H  0.46000205  0.16774409  0.16665756     0.11700
H1180       H  0.38544832  0.14945193  0.13978111     0.11000
H1181       H  0.32894644  0.16331050  0.08267807     0.16300
H1182       H  0.33052619  0.28141759  0.00507964     0.12300
H1183       H  0.51636755  0.34713337  0.10277074     0.15100
H1184       H  0.52258943  0.21976116  0.17018888     0.14900
C1185       C  0.16614529  0.56390645  0.32165136    -0.18000
C1186       C  0.12303338  0.55269927  0.33554314    -0.20200
C1187       C  0.08982729  0.54354894  0.30434600     0.20500
C1188       C  0.09975760  0.54812801  0.25866787    -0.03100
C1189       C  0.14312024  0.56004711  0.24462863    -0.06100
C1190       C  0.17674756  0.56657644  0.27629276     0.20800
C1191       C  0.15333924  0.56310339  0.19888824     0.18900
C1192       C  0.11963668  0.55603293  0.16774668    -0.17600
C1193       C  0.07683782  0.54397686  0.18163117    -0.19800
C1194       C  0.06692120  0.53889350  0.22691310     0.20400
C1195       C  0.02525596  0.52308488  0.24082307    -0.32900
C1196       C  0.01554175  0.51635169  0.28614212     0.01100
C1197       C  0.04751155  0.52822302  0.31785106    -0.24200
C1198       C  0.22077137  0.57313913  0.26201740    -0.28800
C1199       C  0.23159162  0.57380112  0.21653963     0.06800
C1200       C  0.19749614  0.57057674  0.18512431    -0.27400
H1201       H  0.19149832  0.56932882  0.34642306     0.11500
H1202       H  0.11604962  0.54983359  0.37071183     0.12600
H1203       H  0.12671296  0.55846518  0.13257518     0.11700
H1204       H  0.05176826  0.53744795  0.15685678     0.11000
H1205       H  0.00051480  0.51519800  0.21609184     0.16300
H1206       H  0.04020352  0.52361722  0.35280431     0.12300
H1207       H  0.24710602  0.57543201  0.28631651     0.15100
H1208       H  0.20582254  0.57038371  0.15014376     0.14900
C1209       C  0.65107938  0.62593772  0.98589248    -0.18000
C1210       C  0.66464352  0.66905160  0.97328736    -0.20200
C1211       C  0.70910452  0.67764010  0.96173076     0.20500
C1212       C  0.73994244  0.64228531  0.96127947    -0.03100
C1213       C  0.72633408  0.59883572  0.97445566    -0.06100
C1214       C  0.68179352  0.59072271  0.98742365     0.20800
C1215       C  0.75774387  0.56401631  0.97654638     0.18900
C1216       C  0.80181839  0.57227444  0.96339878    -0.17600
C1217       C  0.81525343  0.61527037  0.95020269    -0.19800
C1218       C  0.78487381  0.65079614  0.94999649     0.20400
C1219       C  0.79912567  0.69502122  0.94159849    -0.32900
C1220       C  0.76903920  0.73059059  0.94524193     0.01100
C1221       C  0.72382683  0.72139902  0.95340876    -0.24200
C1222       C  0.66924517  0.54805926  0.00331490    -0.28800
C1223       C  0.70105907  0.51406355  0.00766901     0.06800
C1224       C  0.74493823  0.52201527  0.99334158    -0.27400
H1225       H  0.61682050  0.62042121  0.99563015     0.11500
H1226       H  0.64057383  0.69595075  0.97370182     0.12600
H1227       H  0.82621903  0.54570034  0.96444801     0.11700
H1228       H  0.84974180  0.62101058  0.94148599     0.11000
H1229       H  0.83404780  0.70206750  0.93607647     0.16300
H1230       H  0.70060011  0.74890711  0.95643744     0.12300
H1231       H  0.63543953  0.54192744  0.01428633     0.15100
H1232       H  0.76937987  0.49553529  0.99604907     0.14900
loop_ 
_geom_bond_atom_site_label_1 
_geom_bond_atom_site_label_2 
_geom_bond_distance 
_geom_bond_site_symmetry_2 
_ccdc_geom_bond_type 
O1           C17   1.283       .  A
O1           Zn7   2.022       .  S
C2           O18   1.284       .  A
C2           O15   1.283       .  A
C2          C321   1.500       .  S
O3           C16   1.291       .  A
O3          Cd10   2.204       .  S
O4           C22   1.262       .  A
O4          Cd13   2.015       .  S
O5           C19   1.281       .  A
O5           Cd9   2.108       .  S
O6           C17   1.282       .  A
O6           Cd9   2.101       .  S
Zn7          O18   2.059       .  S
Zn7          O20   1.948       .  S
Zn7          O12   1.906       .  S
O8           C19   1.286       .  A
O8          Cd13   2.103       .  S
Cd9          O11   2.032       .  S
Cd9          O12   1.990       .  S
Cd10         O14   2.136       .  S
Cd10         O23   2.158       .  S
Cd10         O12   1.994       .  S
O11          C21   1.263       .  A
O12         Cd13   1.981       .  S
Cd13         O15   2.104       .  S
O14          C21   1.293       .  A
C16          O20   1.254       .  A
C16         C315   1.496       .  S
C17         C307   1.501       .  S
C19         C295   1.499       .  S
C21         C291   1.480       .  S
C22          O23   1.286       .  A
C22         C303   1.480       .  S
O24          C40   1.281       .  A
O24         Zn30   2.040       .  S
C25          O41   1.282       .  A
C25          O38   1.277       .  A
C25         C271   1.497       .  S
O26          C39   1.297       .  A
O26         Cd33   2.240       .  S
O27          C45   1.260       .  A
O27         Cd36   1.978       .  S
O28          C42   1.277       .  A
O28         Cd32   2.072       .  S
O29          C40   1.274       .  A
O29         Cd32   2.035       .  S
Zn30         O41   2.067       .  S
Zn30         O43   1.885       .  S
Zn30         O35   1.927       .  S
O31          C42   1.281       .  A
O31         Cd36   2.098       .  S
Cd32         O34   1.986       .  S
Cd32         O35   1.967       .  S
Cd33         O37   2.214       .  S
Cd33         O46   2.146       .  S
Cd33         O35   2.032       .  S
O34          C44   1.257       .  A
O35         Cd36   1.962       .  S
Cd36         O38   2.076       .  S
O37          C44   1.297       .  A
C39          O43   1.251       .  A
C39          C80   1.498       .  S
C40         C325   1.476       .  S
C42         C301   1.492       .  S
C44         C319   1.496       .  S
C45          O46   1.288       .  A
C45         C255   1.461       .  S
O47          C63   1.290       .  A
O47         Zn53   2.113       .  S
C48          O64   1.293       .  A
C48          O61   1.280       .  A
C48          C72   1.504       .  S
O49          C62   1.279       .  A
O49         Cd56   2.100       .  S
O50          C68   1.265       .  A
O50         Cd59   2.011       .  S
O51          C65   1.281       .  A
O51         Cd55   2.105       .  S
O52          C63   1.282       .  A
O52         Cd55   2.108       .  S
Zn53         O64   2.131       .  S
Zn53         O66   1.970       .  S
Zn53         O58   1.923       .  S
O54          C65   1.282       .  A
O54         Cd59   2.098       .  S
Cd55         O57   2.018       .  S
Cd55         O58   1.981       .  S
Cd56         O60   2.112       .  S
Cd56         O69   2.111       .  S
Cd56         O58   1.981       .  S
O57          C67   1.268       .  A
O58         Cd59   1.982       .  S
Cd59         O61   2.091       .  S
O60          C67   1.282       .  A
C62          O66   1.268       .  A
C62         C327   1.464       .  S
C63          C78   1.505       .  S
C65         C172   1.487       .  S
C67         C178   1.465       .  S
C68          O69   1.279       .  A
C68         C283   1.465       .  S
C70        C1223   1.478       .  S
C70          N71   1.355       .  A
C70          N75   1.362       .  A
N71          C72   1.350       .  A
C72          N73   1.386       .  A
N73          C74   1.384       .  A
C74         C103   1.514   1_554  S
C74          N75   1.366       .  A
C76        C1196   1.488   1_655  S
C76          N77   1.362       .  A
C76          N81   1.368       .  A
N77          C78   1.353       .  A
C78          N79   1.373       .  A
N79          C80   1.381       .  A
C80          N81   1.365       .  A
O82          C98   1.279       .  A
O82         Zn88   2.022       .  S
C83          O99   1.282   1_554  A
C83          O96   1.284   1_554  A
C83         C285   1.485       .  S
O84          C97   1.295       .  A
O84         Cd91   2.209       .  S
O85         C103   1.261       .  A
O85         Cd94   2.013       .  S
O86         C100   1.274       .  A
O86         Cd90   2.088       .  S
O87          C98   1.276       .  A
O87         Cd90   2.060       .  S
Zn88         O99   2.011       .  S
Zn88        O101   1.971       .  S
Zn88         O93   1.925       .  S
O89         C100   1.286       .  A
O89         Cd94   2.131       .  S
Cd90         O92   2.019       .  S
Cd90         O93   1.980       .  S
Cd91         O95   2.097       .  S
Cd91        O104   2.258   1_556  S
Cd91         O93   1.982       .  S
O92         C102   1.269       .  A
O93         Cd94   1.994       .  S
Cd94         O96   2.109       .  S
O95         C102   1.290       .  A
C97         O101   1.260       .  A
C97         C130   1.506       .  S
C98         C138   1.496       .  S
C100        C313   1.500       .  S
C102        C309   1.462       .  S
C103        O104   1.298   1_556  A
O105        C121   1.272   1_556  A
O105       Zn111   2.004       .  S
C106        O122   1.280   1_565  A
C106        O119   1.294       .  A
C106        C144   1.522       .  S
O107        C120   1.288       .  A
O107       Cd114   2.164       .  S
O108        C126   1.247       .  A
O108       Cd117   1.995   1_545  S
O109        C123   1.280   1_544  A
O109       Cd113   2.106       .  S
O110        C121   1.280       .  A
O110       Cd113   2.086       .  S
Zn111       O122   2.022       .  S
Zn111       O124   1.973       .  S
Zn111       O116   1.972       .  S
O112        C123   1.282       .  A
O112       Cd117   2.116       .  S
Cd113       O115   2.005       .  S
Cd113       O116   2.011   1_554  S
Cd114       O118   2.202       .  S
Cd114       O127   2.139       .  S
Cd114       O116   2.026       .  S
O115        C125   1.263       .  A
O116       Cd117   2.041   1_545  S
Cd117       O119   2.213       .  S
O118        C125   1.297   1_556  A
C120        O124   1.264       .  A
C120        C136   1.487       .  S
C121        C132   1.504   1_554  S
C123        C160   1.513   1_556  S
C125        C156   1.492       .  S
C126        O127   1.284       .  A
C126        C277   1.473       .  S
C128       C1172   1.495       .  S
C128        N129   1.366   1_554  A
C128        N133   1.360       .  A
N129        C130   1.353       .  A
C130        N131   1.380       .  A
N131        C132   1.376       .  A
C132        N133   1.355   1_556  A
C134       C1148   1.462       .  S
C134        N135   1.357       .  A
C134        N139   1.352       .  A
N135        C136   1.360       .  A
C136        N137   1.380       .  A
N137        C138   1.372       .  A
C138        N139   1.351       .  A
C140       C1124   1.473   1_565  S
C140        N141   1.357       .  A
C140        N145   1.353       .  A
N141        C142   1.355       .  A
C142        C206   1.499       .  S
C142        N143   1.390       .  A
N143        C144   1.377       .  A
C144        N145   1.355       .  A
C146       C1103   1.518   1_455  S
C146        N147   1.371       .  A
C146        N151   1.365   1_455  A
N147        C148   1.359       .  A
C148        C202   1.481       .  S
C148        N149   1.365   1_455  A
N149        C150   1.357       .  A
C150        C244   1.479       .  S
C150        N151   1.358       .  A
C152       C1079   1.453       .  S
C152        N153   1.358       .  A
C152        N157   1.359       .  A
N153        C154   1.354       .  A
C154        C183   1.497       .  S
C154        N155   1.373       .  A
N155        C156   1.377       .  A
C156        N157   1.351       .  A
C158       C1055   1.494       .  S
C158        N159   1.378       .  A
C158        N163   1.341   1_566  A
N159        C160   1.371   1_556  A
C160        N161   1.366       .  A
N161        C162   1.371   1_565  A
C162        C203   1.454       .  S
C162        N163   1.345       .  A
C164       C1031   1.463       .  S
C164        N165   1.367       .  A
C164        N169   1.357       .  A
N165        C166   1.365       .  A
C166        C243   1.497       .  S
C166        N167   1.377       .  A
N167        C168   1.365       .  A
C168        C200   1.491   1_565  S
C168        N169   1.346       .  A
C170       C1004   1.486   1_554  S
C170        N171   1.355       .  A
C170        N175   1.364       .  A
N171        C172   1.349       .  A
C172        N173   1.375       .  A
N173        C174   1.376       .  A
C174        C197   1.499   1_655  S
C174        N175   1.366       .  A
C176        C980   1.503       .  S
C176        N177   1.361       .  A
C176        N181   1.358       .  A
N177        C178   1.357       .  A
C178        N179   1.375       .  A
N179        C180   1.361       .  A
C180        C198   1.491   1_655  S
C180        N181   1.352       .  A
O182        C198   1.283       .  A
O182       Zn188   2.094       .  S
C183        O199   1.289       .  A
C183        O196   1.279       .  A
O184        C197   1.291   1_655  A
O184       Cd191   2.201   1_655  S
O185        C203   1.266       .  A
O185       Cd194   2.017       .  S
O186        C200   1.280       .  A
O186       Cd190   2.096       .  S
O187        C198   1.278       .  A
O187       Cd190   2.038       .  S
Zn188       O199   2.072       .  S
Zn188       O201   1.978       .  S
Zn188       O193   1.914       .  S
O189        C200   1.282       .  A
O189       Cd194   2.101       .  S
Cd190       O192   1.999       .  S
Cd190       O193   1.960       .  S
Cd191       O195   2.160   1_545  S
Cd191       O204   2.080       .  S
Cd191       O193   1.973       .  S
O192        C202   1.260   1_545  A
O193       Cd194   1.967       .  S
Cd194       O196   2.089       .  S
O195        C202   1.286       .  A
C197        O201   1.264       .  A
C203        O204   1.283       .  A
O205        C221   1.279       .  A
O205       Zn211   2.091       .  S
C206        O222   1.275       .  A
C206        O219   1.269       .  A
O207        C220   1.283       .  A
O207       Cd214   2.261       .  S
O208        C226   1.264       .  A
O208       Cd217   2.038       .  S
O209        C223   1.279       .  A
O209       Cd213   2.095       .  S
O210        C221   1.279       .  A
O210       Cd213   2.086       .  S
Zn211       O222   2.018       .  S
Zn211       O224   1.961       .  S
Zn211       O216   1.926       .  S
O212        C223   1.277       .  A
O212       Cd217   2.067       .  S
Cd213       O215   1.985       .  S
Cd213       O216   1.962       .  S
Cd214       O218   2.233       .  S
Cd214       O227   2.269       .  S
Cd214       O216   2.027       .  S
O215        C225   1.262       .  A
O216       Cd217   1.940       .  S
Cd217       O219   2.066       .  S
O218        C225   1.300       .  A
C220        O224   1.247       .  A
C220        C289   1.517       .  S
C221        C297   1.479       .  S
C223        C259   1.472       .  S
C225        C267   1.495       .  S
C226        O227   1.300       .  A
C226        C279   1.527       .  S
O228        C244   1.272       .  A
O228       Zn234   1.980   1_655  S
C229        O245   1.273       .  A
C229        O242   1.281       .  A
C229        C261   1.481       .  S
O230        C243   1.292       .  A
O230       Cd237   2.209       .  S
O231        C249   1.254       .  A
O231       Cd240   1.972       .  S
O232        C246   1.272       .  A
O232       Cd236   2.036       .  S
O233        C244   1.271       .  A
O233       Cd236   2.072       .  S
Zn234       O245   1.991       .  S
Zn234       O247   1.944       .  S
Zn234       O239   1.899       .  S
O235        C246   1.285       .  A
O235       Cd240   2.123   1_655  S
Cd236       O238   2.001       .  S
Cd236       O239   1.982   1_655  S
Cd237       O241   2.218       .  S
Cd237       O250   2.207       .  S
Cd237       O239   2.014       .  S
O238        C248   1.264       .  A
O239       Cd240   1.984       .  S
Cd240       O242   2.108       .  S
O241        C248   1.298   1_455  A
C243        O247   1.260       .  A
C246        C253   1.485       .  S
C248        C273   1.493       .  S
C249        O250   1.297       .  A
C249        C265   1.479       .  S
C251        C956   1.438       .  S
C251        N252   1.362       .  A
C251        N256   1.349       .  A
N252        C253   1.356       .  A
C253        N254   1.366       .  A
N254        C255   1.367       .  A
C255        N256   1.343       .  A
C257        C932   1.466   1_565  S
C257        N258   1.352       .  A
C257        N262   1.354       .  A
N258        C259   1.348       .  A
C259        N260   1.374       .  A
N260        C261   1.372       .  A
C261        N262   1.354       .  A
C263        C911   1.495       .  S
C263        N264   1.358       .  A
C263        N268   1.372       .  A
N264        C265   1.341       .  A
C265        N266   1.369       .  A
N266        C267   1.374       .  A
C267        N268   1.361       .  A
C269        C887   1.480       .  S
C269        N270   1.367       .  A
C269        N274   1.367       .  A
N270        C271   1.358       .  A
C271        N272   1.366       .  A
N272        C273   1.370       .  A
C273        N274   1.358       .  A
C275        C860   1.513       .  S
C275        N276   1.345       .  A
C275        N280   1.359   1_545  A
N276        C277   1.346       .  A
C277        N278   1.384   1_545  A
N278        C279   1.374       .  A
C279        N280   1.363       .  A
C281        C836   1.509       .  S
C281        N282   1.362       .  A
C281        N286   1.360       .  A
N282        C283   1.354       .  A
C283        N284   1.371       .  A
N284        C285   1.360       .  A
C285        N286   1.353       .  A
C287        C812   1.498       .  S
C287        N288   1.355       .  A
C287        N292   1.342       .  A
N288        C289   1.373       .  A
C289        N290   1.381       .  A
N290        C291   1.385       .  A
C291        N292   1.344       .  A
C293        C788   1.471       .  S
C293        N294   1.359       .  A
C293        N298   1.348       .  A
N294        C295   1.363       .  A
C295        N296   1.380       .  A
N296        C297   1.375       .  A
C297        N298   1.341       .  A
C299        C767   1.455       .  S
C299        N300   1.358       .  A
C299        N304   1.355       .  A
N300        C301   1.354       .  A
C301        N302   1.369       .  A
N302        C303   1.374       .  A
C303        N304   1.355       .  A
C305        C740   1.486       .  S
C305        N306   1.365       .  A
C305        N310   1.337       .  A
N306        C307   1.366       .  A
C307        N308   1.373       .  A
N308        C309   1.376       .  A
C309        N310   1.344       .  A
C311        C719   1.470       .  S
C311        N312   1.364       .  A
C311        N316   1.363       .  A
N312        C313   1.357       .  A
C313        N314   1.372       .  A
N314        C315   1.374       .  A
C315        N316   1.353       .  A
C317        C695   1.492       .  S
C317        N318   1.366       .  A
C317        N322   1.364       .  A
N318        C319   1.349       .  A
C319        N320   1.376       .  A
N320        C321   1.370       .  A
C321        N322   1.360       .  A
C323        C668   1.508       .  S
C323        N324   1.358       .  A
C323        N328   1.364       .  A
N324        C325   1.354       .  A
C325        N326   1.359       .  A
N326        C327   1.368       .  A
C327        N328   1.357       .  A
O329        C345   1.279       .  A
O329       Zn335   2.047       .  S
C330        O346   1.276       .  A
C330        O343   1.281       .  A
C330        C443   1.488       .  S
O331        C344   1.298       .  A
O331       Cd338   2.230       .  S
O332        C350   1.265       .  A
O332       Cd341   2.025       .  S
O333        C347   1.283       .  A
O333       Cd337   2.100       .  S
O334        C345   1.280       .  A
O334       Cd337   2.102       .  S
Zn335       O346   2.051       .  S
Zn335       O348   1.873       .  S
Zn335       O340   1.923       .  S
O336        C347   1.277       .  A
O336       Cd341   2.074       .  S
Cd337       O339   1.991       .  S
Cd337       O340   1.988       .  S
Cd338       O342   2.234       .  S
Cd338       O351   2.187       .  S
Cd338       O340   2.039       .  S
O339        C349   1.258       .  A
O340       Cd341   1.982       .  S
Cd341       O343   2.097       .  S
O342        C349   1.296       .  A
C344        O348   1.253       .  A
C344        C635   1.485       .  S
C345        C575   1.494       .  S
C347        C557   1.491       .  S
C349        C581   1.503       .  S
C350        O351   1.292       .  A
C350        C565   1.495       .  S
O352        C368   1.282       .  A
O352       Zn358   2.075       .  S
C353        O369   1.277       .  A
C353        O366   1.281       .  A
C353        C571   1.487       .  S
O354        C367   1.294       .  A
O354       Cd361   2.203       .  S
O355        C373   1.259       .  A
O355       Cd364   2.011       .  S
O356        C370   1.285       .  A
O356       Cd360   2.130       .  S
O357        C368   1.283       .  A
O357       Cd360   2.124       .  S
Zn358       O369   2.052       .  S
Zn358       O371   1.929       .  S
Zn358       O363   1.929       .  S
O359        C370   1.284       .  A
O359       Cd364   2.140       .  S
Cd360       O362   1.995       .  S
Cd360       O363   1.993       .  S
Cd361       O365   2.200       .  S
Cd361       O374   2.196       .  S
Cd361       O363   2.024       .  S
O362        C372   1.262       .  A
O363       Cd364   1.984       .  S
Cd364       O366   2.092       .  S
O365        C372   1.294       .  A
C367        O371   1.261       .  A
C367        C607   1.487       .  S
C368        C379   1.500       .  S
C370        C623   1.506       .  S
C372        C631   1.484       .  S
C373        O374   1.289       .  A
C373        C593   1.485       .  S
C375       C1151   1.475       .  S
C375        N376   1.358       .  A
C375        N380   1.360       .  A
N376        C377   1.356       .  A
C377        C397   1.504       .  S
C377        N378   1.379       .  A
N378        C379   1.380       .  A
C379        N380   1.356       .  A
O381        C397   1.283       .  A
O381       Zn387   2.062       .  S
C382        O398   1.277       .  A
C382        O395   1.278       .  A
C382        C441   1.483       .  S
O383        C396   1.293       .  A
O383       Cd390   2.204       .  S
O384        C402   1.256       .  A
O384       Cd393   1.974       .  S
O385        C399   1.286       .  A
O385       Cd389   2.122       .  S
O386        C397   1.273       .  A
O386       Cd389   2.098       .  S
Zn387       O398   2.032       .  S
Zn387       O400   1.912       .  S
Zn387       O392   1.933       .  S
O388        C399   1.272       .  A
O388       Cd393   2.073       .  S
Cd389       O391   1.977       .  S
Cd389       O392   1.986       .  S
Cd390       O394   2.184       .  S
Cd390       O403   2.216       .  S
Cd390       O392   2.035       .  S
O391        C401   1.256       .  A
O392       Cd393   1.988       .  S
Cd393       O395   2.077       .  S
O394        C401   1.294       .  A
C396        O400   1.255       .  A
C396        C637   1.490       .  S
C399        C406   1.491       .  S
C401        C629   1.476       .  S
C402        O403   1.295       .  A
C402        C611   1.487       .  S
C404        C671   1.478       .  S
C404        N405   1.358       .  A
C404        N409   1.354       .  A
N405        C406   1.338       .  A
C406        N407   1.370       .  A
N407        C408   1.378       .  A
C408        C417   1.476       .  S
C408        N409   1.362       .  A
C410        C815   1.464       .  S
C410        N411   1.365       .  A
C410        N415   1.350       .  A
N411        C412   1.363       .  A
C412        C434   1.495       .  S
C412        N413   1.376       .  A
N413        C414   1.371       .  A
C414        C446   1.483       .  S
C414        N415   1.346       .  A
O416        C432   1.282   1_554  A
O416       Zn422   2.043       .  S
C417        O433   1.278       .  A
C417        O430   1.275       .  A
O418        C431   1.293       .  A
O418       Cd425   2.226       .  S
O419        C437   1.257       .  A
O419       Cd428   1.962       .  S
O420        C434   1.282       .  A
O420       Cd424   2.136       .  S
O421        C432   1.278       .  A
O421       Cd424   2.082       .  S
Zn422       O433   2.047       .  S
Zn422       O435   1.962       .  S
Zn422       O427   1.924       .  S
O423        C434   1.270   1_554  A
O423       Cd428   2.074       .  S
Cd424       O426   1.966       .  S
Cd424       O427   2.005   1_556  S
Cd425       O429   2.192       .  S
Cd425       O438   2.202       .  S
Cd425       O427   2.049       .  S
O426        C436   1.258       .  A
O427       Cd428   1.976       .  S
Cd428       O430   2.053       .  S
O429        C436   1.295   1_554  A
C431        O435   1.262       .  A
C431        C613   1.509       .  S
C432        C619   1.491       .  S
C436        C599   1.479       .  S
C437        O438   1.294       .  A
C437        C587   1.476       .  S
C439        C908   1.476       .  S
C439        N440   1.358       .  A
C439        N444   1.360       .  A
N440        C441   1.361       .  A
C441        N442   1.376       .  A
N442        C443   1.369       .  A
C443        N444   1.343       .  A
O445        C461   1.283   1_565  A
O445       Zn451   2.061       .  S
C446        O462   1.276   1_556  A
C446        O459   1.279       .  A
O447        C460   1.292       .  A
O447       Cd454   2.197       .  S
O448        C466   1.259       .  A
O448       Cd457   1.985       .  S
O449        C463   1.291       .  A
O449       Cd453   2.125       .  S
O450        C461   1.277       .  A
O450       Cd453   2.111       .  S
Zn451       O462   2.045       .  S
Zn451       O464   1.892       .  S
Zn451       O456   1.903       .  S
O452        C463   1.273   1_566  A
O452       Cd457   2.092   1_556  S
Cd453       O455   1.962       .  S
Cd453       O456   1.966   1_545  S
Cd454       O458   2.155       .  S
Cd454       O467   2.216       .  S
Cd454       O456   2.007       .  S
O455        C465   1.253   1_545  A
O456       Cd457   1.962       .  S
Cd457       O459   2.053   1_554  S
O458        C465   1.292       .  A
C460        O464   1.255       .  A
C460        C589   1.480       .  S
C461        C625   1.507       .  S
C463        C649   1.494   1_554  S
C465        C595   1.460   1_565  S
C466        O467   1.291       .  A
C466        C470   1.487   1_554  S
C468       C1220   1.477       .  S
C468        N469   1.354       .  A
C468        N473   1.368       .  A
N469        C470   1.347       .  A
C470        N471   1.374       .  A
N471        C472   1.381       .  A
C472        C523   1.508       .  S
C472        N473   1.369       .  A
O474        C490   1.291       .  A
O474       Zn480   2.096   1_455  S
C475        O491   1.281       .  A
C475        O488   1.278       .  A
C475        C569   1.501       .  S
O476        C489   1.297       .  A
O476       Cd483   2.210       .  S
O477        C495   1.257       .  A
O477       Cd486   1.974       .  S
O478        C492   1.273       .  A
O478       Cd482   2.046       .  S
O479        C490   1.268       .  A
O479       Cd482   2.049       .  S
Zn480       O491   2.097       .  S
Zn480       O493   1.932       .  S
Zn480       O485   1.933       .  S
O481        C492   1.274   1_655  A
O481       Cd486   2.084       .  S
Cd482       O484   1.970       .  S
Cd482       O485   1.956   1_455  S
Cd483       O487   2.213       .  S
Cd483       O496   2.241       .  S
Cd483       O485   2.009       .  S
O484        C494   1.257   1_455  A
O485       Cd486   1.984       .  S
Cd486       O488   2.056       .  S
O487        C494   1.294       .  A
C489        O493   1.260       .  A
C489        C605   1.488       .  S
C490        C577   1.481       .  S
C492        C653   1.470       .  S
C494        C583   1.482   1_655  S
C495        O496   1.300       .  A
C495        C501   1.499       .  S
C497       C1127   1.464       .  S
C497        N498   1.363       .  A
C497        N502   1.365       .  A
N498        C499   1.350       .  A
C499        C518   1.498       .  S
C499        N500   1.371       .  A
N500        C501   1.379       .  A
C501        N502   1.358       .  A
O503        C519   1.283       .  A
O503       Zn509   2.053       .  S
C504        O520   1.278   1_455  A
C504        O517   1.277   1_545  A
C504        C655   1.491       .  S
O505        C518   1.297   1_565  A
O505       Cd512   2.220       .  S
O506        C524   1.257       .  A
O506       Cd515   2.023   1_655  S
O507        C521   1.285   1_655  A
O507       Cd511   2.119       .  S
O508        C519   1.280   1_565  A
O508       Cd511   2.091       .  S
Zn509       O520   2.060       .  S
Zn509       O522   1.944       .  S
Zn509       O514   1.926   1_545  S
O510        C521   1.283       .  A
O510       Cd515   2.118       .  S
Cd511       O513   2.034       .  S
Cd511       O514   1.999       .  S
Cd512       O516   2.222       .  S
Cd512       O525   2.163       .  S
Cd512       O514   2.036       .  S
O513        C523   1.264       .  A
O514       Cd515   2.023   1_655  S
Cd515       O517   2.084       .  S
O516        C523   1.296       .  A
C518        O522   1.260       .  A
C519        C647   1.488       .  S
C521        C641   1.501       .  S
C524        O525   1.290       .  A
C524        C553   1.485   1_655  S
O526        C542   1.283       .  A
O526       Zn532   2.092       .  S
C527        O543   1.278       .  A
C527        O540   1.278       .  A
C527        C563   1.500       .  S
O528        C541   1.293       .  A
O528       Cd535   2.192       .  S
O529        C547   1.270       .  A
O529       Cd538   2.037       .  S
O530        C544   1.284       .  A
O530       Cd534   2.079       .  S
O531        C542   1.278       .  A
O531       Cd534   2.096       .  S
Zn532       O543   2.024       .  S
Zn532       O545   1.952       .  S
Zn532       O537   1.949       .  S
O533        C544   1.270       .  A
O533       Cd538   2.083       .  S
Cd534       O536   2.013       .  S
Cd534       O537   1.995       .  S
Cd535       O539   2.173       .  S
Cd535       O548   2.129       .  S
Cd535       O537   2.005       .  S
O536        C546   1.263       .  A
O537       Cd538   2.033       .  S
Cd538       O540   2.096       .  S
O539        C546   1.290       .  A
C541        O545   1.264       .  A
C541        C559   1.491       .  S
C542        C551   1.506       .  S
C544        C601   1.487       .  S
C546        C643   1.485       .  S
C547        O548   1.287       .  A
C547        C617   1.475       .  S
C549        C959   1.500       .  S
C549        N550   1.361       .  A
C549        N554   1.350   1_455  A
N550        C551   1.358       .  A
C551        N552   1.378       .  A
N552        C553   1.384       .  A
C553        N554   1.351   1_455  A
C555        C716   1.478   1_455  S
C555        N556   1.364       .  A
C555        N560   1.366       .  A
N556        C557   1.360       .  A
C557        N558   1.365       .  A
N558        C559   1.367       .  A
C559        N560   1.359       .  A
C561        C743   1.458       .  S
C561        N562   1.352       .  A
C561        N566   1.362       .  A
N562        C563   1.342       .  A
C563        N564   1.370       .  A
N564        C565   1.380       .  A
C565        N566   1.361       .  A
C567        C764   1.472   1_545  S
C567        N568   1.352       .  A
C567        N572   1.353       .  A
N568        C569   1.354       .  A
C569        N570   1.378       .  A
N570        C571   1.383       .  A
C571        N572   1.352       .  A
C573        C983   1.476       .  S
C573        N574   1.364       .  A
C573        N578   1.353       .  A
N574        C575   1.365       .  A
C575        N576   1.376       .  A
N576        C577   1.371       .  A
C577        N578   1.335       .  A
C579       C1007   1.469       .  S
C579        N580   1.370       .  A
C579        N584   1.358       .  A
N580        C581   1.366       .  A
C581        N582   1.376       .  A
N582        C583   1.371       .  A
C583        N584   1.348       .  A
C585        C791   1.449       .  S
C585        N586   1.361       .  A
C585        N590   1.362       .  A
N586        C587   1.349       .  A
C587        N588   1.365       .  A
N588        C589   1.369       .  A
C589        N590   1.355       .  A
C591       C1100   1.442       .  S
C591        N592   1.359       .  A
C591        N596   1.340       .  A
N592        C593   1.367       .  A
C593        N594   1.374       .  A
N594        C595   1.373       .  A
C595        N596   1.329       .  A
C597       C1052   1.446       .  S
C597        N598   1.358       .  A
C597        N602   1.344       .  A
N598        C599   1.359       .  A
C599        N600   1.385       .  A
N600        C601   1.367       .  A
C601        N602   1.329       .  A
C603        C692   1.457       .  S
C603        N604   1.356       .  A
C603        N608   1.362       .  A
N604        C605   1.341       .  A
C605        N606   1.372       .  A
N606        C607   1.379       .  A
C607        N608   1.358       .  A
C609       C1199   1.481       .  S
C609        N610   1.363       .  A
C609        N614   1.374       .  A
N610        C611   1.353       .  A
C611        N612   1.368       .  A
N612        C613   1.372       .  A
C613        N614   1.368       .  A
C615       C1076   1.465       .  S
C615        N616   1.351       .  A
C615        N620   1.357       .  A
N616        C617   1.347       .  A
C617        N618   1.374       .  A
N618        C619   1.373       .  A
C619        N620   1.358       .  A
C621       C1028   1.486       .  S
C621        N622   1.361       .  A
C621        N626   1.359       .  A
N622        C623   1.359       .  A
C623        N624   1.381       .  A
N624        C625   1.380       .  A
C625        N626   1.357       .  A
C627       C1175   1.449       .  S
C627        N628   1.352       .  A
C627        N632   1.363       .  A
N628        C629   1.337       .  A
C629        N630   1.369       .  A
N630        C631   1.373       .  A
C631        N632   1.360       .  A
C633        C935   1.448       .  S
C633        N634   1.361       .  A
C633        N638   1.359       .  A
N634        C635   1.351       .  A
C635        N636   1.372       .  A
N636        C637   1.375       .  A
C637        N638   1.353       .  A
C639        C884   1.474   1_556  S
C639        N640   1.364       .  A
C639        N644   1.362       .  A
N640        C641   1.360       .  A
C641        N642   1.364       .  A
N642        C643   1.372       .  A
C643        N644   1.357       .  A
C645        C839   1.473       .  S
C645        N646   1.357       .  A
C645        N650   1.347       .  A
N646        C647   1.368       .  A
C647        N648   1.387       .  A
N648        C649   1.373       .  A
C649        N650   1.330       .  A
C651        C863   1.451       .  S
C651        N652   1.343       .  A
C651        N656   1.362       .  A
N652        C653   1.340       .  A
C653        N654   1.371       .  A
N654        C655   1.377       .  A
C655        N656   1.363       .  A
C657        C658   1.401       .  A
C657        C662   1.403       .  A
C657        H673   1.083       .  S
C658        C659   1.405       .  A
C658        H674   1.081       .  S
C659        C669   1.408       .  A
C659        C660   1.412       .  A
C660        C666   1.411       .  A
C660        C661   1.400       .  A
C661        C663   1.417       .  A
C661        C662   1.415       .  A
C662        C670   1.408       .  A
C663        C672   1.408       .  A
C663        C664   1.404       .  A
C664        C665   1.401       .  A
C664        H675   1.083       .  S
C665        C666   1.405       .  A
C665        H676   1.083       .  S
C666        C667   1.406       .  A
C667        C668   1.417       .  A
C667        H677   1.085       .  S
C668        C669   1.411       .  A
C669        H678   1.082       .  S
C670        C671   1.406       .  A
C670        H679   1.085       .  S
C671        C672   1.408       .  A
C672        H680   1.084       .  S
C681        C682   1.402       .  A
C681        C686   1.403       .  A
C681        H697   1.083       .  S
C682        C683   1.406       .  A
C682        H698   1.083       .  S
C683        C693   1.404       .  A
C683        C684   1.411       .  A
C684        C690   1.410       .  A
C684        C685   1.399       .  A
C685        C687   1.417       .  A
C685        C686   1.416       .  A
C686        C694   1.410       .  A
C687        C696   1.405       .  A
C687        C688   1.401       .  A
C688        C689   1.398       .  A
C688        H699   1.083       .  S
C689        C690   1.405       .  A
C689        H700   1.084       .  S
C690        C691   1.397       .  A
C691        C692   1.404       .  A
C691        H701   1.086       .  S
C692        C693   1.409       .  A
C693        H702   1.084       .  S
C694        C695   1.411       .  A
C694        H703   1.083       .  S
C695        C696   1.405       .  A
C696        H704   1.085       .  S
C705        C706   1.393       .  A
C705        C710   1.400       .  A
C705        H721   1.084       .  S
C706        C707   1.402       .  A
C706        H722   1.078       .  S
C707        C717   1.396       .  A
C707        C708   1.408       .  A
C708        C714   1.413       .  A
C708        C709   1.410       .  A
C709        C711   1.410       .  A
C709        C710   1.413       .  A
C710        C718   1.397       .  A
C711        C720   1.404       .  A
C711        C712   1.405       .  A
C712        C713   1.402       .  A
C712        H723   1.083       .  S
C713        C714   1.404       .  A
C713        H724   1.083       .  S
C714        C715   1.409       .  A
C715        C716   1.407       .  A
C715        H725   1.084       .  S
C716        C717   1.401       .  A
C717        H726   1.073       .  S
C718        C719   1.401       .  A
C718        H727   1.085       .  S
C719        C720   1.407       .  A
C720        H728   1.084       .  S
C729        C730   1.391       .  A
C729        C734   1.402       .  A
C729        H745   1.083       .  S
C730        C731   1.395       .  A
C730        H746   1.083       .  S
C731        C741   1.399       .  A
C731        C732   1.421       .  A
C732        C738   1.410       .  A
C732        C733   1.394       .  A
C733        C735   1.417       .  A
C733        C734   1.401       .  A
C734        C742   1.375       .  A
C735        C744   1.410       .  A
C735        C736   1.406       .  A
C736        C737   1.403       .  A
C736        H747   1.083       .  S
C737        C738   1.405       .  A
C737        H748   1.083       .  S
C738        C739   1.403       .  A
C739        C740   1.411       .  A
C739        H749   1.084       .  S
C740        C741   1.397       .  A
C741        H750   1.084       .  S
C742        C743   1.405       .  A
C742        H751   1.086       .  S
C743        C744   1.403       .  A
C744        H752   1.084       .  S
C753        C754   1.397       .  A
C753        C758   1.402       .  A
C753        H769   1.084       .  S
C754        C755   1.403       .  A
C754        H770   1.084       .  S
C755        C765   1.398       .  A
C755        C756   1.411       .  A
C756        C762   1.411       .  A
C756        C757   1.406       .  A
C757        C759   1.413       .  A
C757        C758   1.413       .  A
C758        C766   1.398       .  A
C759        C768   1.398       .  A
C759        C760   1.402       .  A
C760        C761   1.396       .  A
C760        H771   1.084       .  S
C761        C762   1.403       .  A
C761        H772   1.084       .  S
C762        C763   1.396       .  A
C763        C764   1.406       .  A
C763        H773   1.084       .  S
C764        C765   1.405       .  A
C765        H774   1.084   1_565  S
C766        C767   1.400       .  A
C766        H775   1.085       .  S
C767        C768   1.400       .  A
C768        H776   1.085       .  S
C777        C778   1.397       .  A
C777        C782   1.403       .  A
C777        H793   1.084       .  S
C778        C779   1.402       .  A
C778        H794   1.084       .  S
C779        C789   1.403       .  A
C779        C780   1.415       .  A
C780        C786   1.407       .  A
C780        C781   1.405       .  A
C781        C783   1.415       .  A
C781        C782   1.410       .  A
C782        C790   1.395       .  A
C783        C792   1.397       .  A
C783        C784   1.401       .  A
C784        C785   1.394       .  A
C784        H795   1.084       .  S
C785        C786   1.403       .  A
C785        H796   1.084       .  S
C786        C787   1.390       .  A
C787        C788   1.408       .  A
C787        H797   1.084       .  S
C788        C789   1.402       .  A
C789        H798   1.084       .  S
C790        C791   1.400       .  A
C790        H799   1.085       .  S
C791        C792   1.397       .  A
C792        H800   1.085       .  S
C801        C802   1.395       .  A
C801        C806   1.402       .  A
C801        H817   1.079       .  S
C802        C803   1.397       .  A
C802        H818   1.081       .  S
C803        C813   1.404       .  A
C803        C804   1.417       .  A
C804        C810   1.412       .  A
C804        C805   1.402       .  A
C805        C807   1.414       .  A
C805        C806   1.408       .  A
C806        C814   1.390       .  A
C807        C816   1.404       .  A
C807        C808   1.404       .  A
C808        C809   1.400       .  A
C808        H819   1.084       .  S
C809        C810   1.403       .  A
C809        H820   1.080       .  S
C810        C811   1.404       .  A
C811        C812   1.412       .  A
C811        H821   1.085       .  S
C812        C813   1.401       .  A
C813        H822   1.082       .  S
C814        C815   1.404       .  A
C814        H823   1.085       .  S
C815        C816   1.403       .  A
C816        H824   1.084       .  S
C825        C826   1.403   1_556  A
C825        C830   1.407       .  A
C825        H841   1.083       .  S
C826        C827   1.404       .  A
C826        H842   1.083   1_554  S
C827        C837   1.412       .  A
C827        C828   1.415       .  A
C828        C834   1.414       .  A
C828        C829   1.401       .  A
C829        C831   1.414       .  A
C829        C830   1.414   1_554  A
C830        C838   1.412       .  A
C831        C840   1.409       .  A
C831        C832   1.403       .  A
C832        C833   1.401       .  A
C832        H843   1.083       .  S
C833        C834   1.404       .  A
C833        H844   1.079       .  S
C834        C835   1.412       .  A
C835        C836   1.413       .  A
C835        H845   1.083       .  S
C836        C837   1.415       .  A
C837        H846   1.084       .  S
C838        C839   1.413       .  A
C838        H847   1.084       .  S
C839        C840   1.406   1_556  A
C840        H848   1.084       .  S
C849        C850   1.396       .  A
C849        C854   1.405       .  A
C849        H865   1.084       .  S
C850        C851   1.399       .  A
C850        H866   1.083       .  S
C851        C861   1.405       .  A
C851        C852   1.421       .  A
C852        C858   1.421       .  A
C852        C853   1.399       .  A
C853        C855   1.414       .  A
C853        C854   1.412       .  A
C854        C862   1.392       .  A
C855        C864   1.400       .  A
C855        C856   1.405       .  A
C856        C857   1.399       .  A
C856        H867   1.084       .  S
C857        C858   1.402       .  A
C857        H868   1.084       .  S
C858        C859   1.409       .  A
C859        C860   1.410       .  A
C859        H869   1.085       .  S
C860        C861   1.404       .  A
C861        H870   1.081       .  S
C862        C863   1.402       .  A
C862        H871   1.085       .  S
C863        C864   1.400       .  A
C864        H872   1.085       .  S
C873        C874   1.399       .  A
C873        C878   1.404       .  A
C873        H889   1.084       .  S
C874        C875   1.403       .  A
C874        H890   1.084       .  S
C875        C885   1.404       .  A
C875        C876   1.413   1_655  A
C876        C882   1.412       .  A
C876        C877   1.413   1_455  A
C877        C879   1.412   1_655  A
C877        C878   1.411       .  A
C878        C886   1.402       .  A
C879        C888   1.405       .  A
C879        C880   1.404       .  A
C880        C881   1.400       .  A
C880        H891   1.084       .  S
C881        C882   1.404       .  A
C881        H892   1.084       .  S
C882        C883   1.405       .  A
C883        C884   1.405       .  A
C883        H893   1.084       .  S
C884        C885   1.404   1_455  A
C885        H894   1.085   1_554  S
C886        C887   1.407       .  A
C886        H895   1.084       .  S
C887        C888   1.407   1_655  A
C888        H896   1.084       .  S
C897        C898   1.400       .  A
C897        C902   1.403       .  A
C897        H913   1.083       .  S
C898        C899   1.404       .  A
C898        H914   1.083       .  S
C899        C909   1.405       .  A
C899        C900   1.415       .  A
C900        C906   1.415       .  A
C900        C901   1.398       .  A
C901        C903   1.415       .  A
C901        C902   1.413       .  A
C902        C910   1.404       .  A
C903        C912   1.411       .  A
C903        C904   1.404       .  A
C904        C905   1.402       .  A
C904        H915   1.083       .  S
C905        C906   1.405       .  A
C905        H916   1.083       .  S
C906        C907   1.408       .  A
C907        C908   1.409       .  A
C907        H917   1.084       .  S
C908        C909   1.405       .  A
C909        H918   1.085       .  S
C910        C911   1.399       .  A
C910        H919   1.071       .  S
C911        C912   1.413       .  A
C912        H920   1.084       .  S
C921        C922   1.396       .  A
C921        C926   1.402       .  A
C921        H937   1.084       .  S
C922        C923   1.403       .  A
C922        H938   1.084       .  S
C923        C933   1.395       .  A
C923        C924   1.410       .  A
C924        C930   1.412       .  A
C924        C925   1.404       .  A
C925        C927   1.411       .  A
C925        C926   1.414       .  A
C926        C934   1.398       .  A
C927        C936   1.393       .  A
C927        C928   1.400       .  A
C928        C929   1.393       .  A
C928        H939   1.080       .  S
C929        C930   1.401       .  A
C929        H940   1.084       .  S
C930        C931   1.394       .  A
C931        C932   1.403       .  A
C931        H941   1.084       .  S
C932        C933   1.405       .  A
C933        H942   1.084       .  S
C934        C935   1.398       .  A
C934        H943   1.085       .  S
C935        C936   1.398       .  A
C936        H944   1.085       .  S
C945        C946   1.393       .  A
C945        C950   1.392       .  A
C945        H961   1.060       .  S
C946        C947   1.398   1_455  A
C946        H962   1.085       .  S
C947        C957   1.389       .  A
C947        C948   1.415       .  A
C948        C954   1.412       .  A
C948        C949   1.399       .  A
C949        C951   1.416       .  A
C949        C950   1.412   1_655  A
C950        C958   1.400       .  A
C951        C960   1.409       .  A
C951        C952   1.401       .  A
C952        C953   1.399       .  A
C952        H963   1.083       .  S
C953        C954   1.405       .  A
C953        H964   1.084       .  S
C954        C955   1.395       .  A
C955        C956   1.399       .  A
C955        H965   1.085       .  S
C956        C957   1.393       .  A
C957        H966   1.086       .  S
C958        C959   1.397       .  A
C958        H967   1.080       .  S
C959        C960   1.411   1_455  A
C960        H968   1.084       .  S
C969        C970   1.400       .  A
C969        C974   1.404   1_655  A
C969        H985   1.083       .  S
C970        C971   1.403       .  A
C970        H986   1.083       .  S
C971        C981   1.408       .  A
C971        C972   1.416       .  A
C972        C978   1.418       .  A
C972        C973   1.400   1_655  A
C973        C975   1.414       .  A
C973        C974   1.414       .  A
C974        C982   1.406       .  A
C975        C984   1.411       .  A
C975        C976   1.407       .  A
C976        C977   1.405       .  A
C976        H987   1.083       .  S
C977        C978   1.405   1_455  A
C977        H988   1.083       .  S
C978        C979   1.416       .  A
C979        C980   1.416       .  A
C979        H989   1.084       .  S
C980        C981   1.407       .  A
C981        H990   1.081       .  S
C982        C983   1.404       .  A
C982        H991   1.085       .  S
C983        C984   1.415       .  A
C984        H992   1.082       .  S
C993        C994   1.402       .  A
C993        C998   1.405       .  A
C993       H1009   1.083       .  S
C994        C995   1.405       .  A
C994       H1010   1.083       .  S
C995       C1005   1.410       .  A
C995        C996   1.413       .  A
C996       C1002   1.410   1_455  A
C996        C997   1.413       .  A
C997        C999   1.412       .  A
C997        C998   1.413       .  A
C998       C1006   1.408       .  A
C999       C1008   1.399       .  A
C999       C1000   1.402   1_455  A
C1000      C1001   1.397       .  A
C1000      H1011   1.084       .  S
C1001      C1002   1.403       .  A
C1001      H1012   1.084       .  S
C1002      C1003   1.399       .  A
C1003      C1004   1.409       .  A
C1003      H1013   1.084       .  S
C1004      C1005   1.409   1_655  A
C1005      H1014   1.084       .  S
C1006      C1007   1.406       .  A
C1006      H1015   1.084       .  S
C1007      C1008   1.403       .  A
C1008      H1016   1.084   1_455  S
C1017      C1018   1.398       .  A
C1017      C1022   1.403       .  A
C1017      H1033   1.084       .  S
C1018      C1019   1.404       .  A
C1018      H1034   1.084       .  S
C1019      C1029   1.402       .  A
C1019      C1020   1.411       .  A
C1020      C1026   1.411       .  A
C1020      C1021   1.412       .  A
C1021      C1023   1.413       .  A
C1021      C1022   1.411       .  A
C1022      C1030   1.400       .  A
C1023      C1032   1.405       .  A
C1023      C1024   1.403       .  A
C1024      C1025   1.400       .  A
C1024      H1035   1.084       .  S
C1025      C1026   1.404       .  A
C1025      H1036   1.083       .  S
C1026      C1027   1.405       .  A
C1027      C1028   1.409   1_565  A
C1027      H1037   1.084   1_565  S
C1028      C1029   1.408   1_545  A
C1029      H1038   1.084       .  S
C1030      C1031   1.404       .  A
C1030      H1039   1.085       .  S
C1031      C1032   1.403       .  A
C1032      H1040   1.085       .  S
C1041      C1042   1.389       .  A
C1041      C1046   1.395       .  A
C1041      H1057   1.084       .  S
C1042      C1043   1.400       .  A
C1042      H1058   1.076       .  S
C1043      C1053   1.382       .  A
C1043      C1044   1.405       .  A
C1044      C1050   1.414       .  A
C1044      C1045   1.396       .  A
C1045      C1047   1.416       .  A
C1045      C1046   1.425       .  A
C1046      C1054   1.400       .  A
C1047      C1056   1.404       .  A
C1047      C1048   1.403       .  A
C1048      C1049   1.399   1_556  A
C1048      H1059   1.083   1_556  S
C1049      C1050   1.405   1_554  A
C1049      H1060   1.083       .  S
C1050      C1051   1.402       .  A
C1051      C1052   1.405       .  A
C1051      H1061   1.084   1_556  S
C1052      C1053   1.402       .  A
C1053      H1062   1.087       .  S
C1054      C1055   1.397       .  A
C1054      H1063   1.084   1_565  S
C1055      C1056   1.408       .  A
C1056      H1064   1.085   1_556  S
C1065      C1066   1.394       .  A
C1065      C1070   1.401       .  A
C1065      H1081   1.084       .  S
C1066      C1067   1.402       .  A
C1066      H1082   1.084       .  S
C1067      C1077   1.392       .  A
C1067      C1068   1.410   1_556  A
C1068      C1074   1.413       .  A
C1068      C1069   1.405       .  A
C1069      C1071   1.411       .  A
C1069      C1070   1.414   1_554  A
C1070      C1078   1.396   1_556  A
C1071      C1080   1.397       .  A
C1071      C1072   1.403       .  A
C1072      C1073   1.397       .  A
C1072      H1083   1.084       .  S
C1073      C1074   1.403       .  A
C1073      H1084   1.084       .  S
C1074      C1075   1.400       .  A
C1075      C1076   1.403   1_554  A
C1075      H1085   1.084       .  S
C1076      C1077   1.404       .  A
C1077      H1086   1.084       .  S
C1078      C1079   1.398       .  A
C1078      H1087   1.085   1_554  S
C1079      C1080   1.401       .  A
C1080      H1088   1.085       .  S
C1089      C1090   1.398       .  A
C1089      C1094   1.400       .  A
C1089      H1105   1.083       .  S
C1090      C1091   1.406       .  A
C1090      H1106   1.084       .  S
C1091      C1101   1.397       .  A
C1091      C1092   1.411       .  A
C1092      C1098   1.412       .  A
C1092      C1093   1.401       .  A
C1093      C1095   1.422       .  A
C1093      C1094   1.423       .  A
C1094      C1102   1.412       .  A
C1095      C1104   1.410       .  A
C1095      C1096   1.401       .  A
C1096      C1097   1.398       .  A
C1096      H1107   1.084       .  S
C1097      C1098   1.405       .  A
C1097      H1108   1.084       .  S
C1098      C1099   1.398       .  A
C1099      C1100   1.402   1_565  A
C1099      H1109   1.085       .  S
C1100      C1101   1.405   1_545  A
C1101      H1110   1.085   1_565  S
C1102      C1103   1.410       .  A
C1102      H1111   1.084   1_655  S
C1103      C1104   1.410       .  A
C1104      H1112   1.082       .  S
C1113      C1114   1.399       .  A
C1113      C1118   1.403       .  A
C1113      H1129   1.084       .  S
C1114      C1115   1.404       .  A
C1114      H1130   1.083       .  S
C1115      C1125   1.403       .  A
C1115      C1116   1.412       .  A
C1116      C1122   1.411       .  A
C1116      C1117   1.408       .  A
C1117      C1119   1.412       .  A
C1117      C1118   1.413       .  A
C1118      C1126   1.402       .  A
C1119      C1128   1.396       .  A
C1119      C1120   1.402       .  A
C1120      C1121   1.396       .  A
C1120      H1131   1.084       .  S
C1121      C1122   1.403       .  A
C1121      H1132   1.084       .  S
C1122      C1123   1.396       .  A
C1123      C1124   1.405       .  A
C1123      H1133   1.084   1_545  S
C1124      C1125   1.405       .  A
C1125      H1134   1.084       .  S
C1126      C1127   1.402       .  A
C1126      H1135   1.085       .  S
C1127      C1128   1.403       .  A
C1128      H1136   1.085       .  S
C1137      C1138   1.398       .  A
C1137      C1142   1.403       .  A
C1137      H1153   1.084       .  S
C1138      C1139   1.403       .  A
C1138      H1154   1.084       .  S
C1139      C1149   1.401       .  A
C1139      C1140   1.412       .  A
C1140      C1146   1.412       .  A
C1140      C1141   1.410       .  A
C1141      C1143   1.412       .  A
C1141      C1142   1.412       .  A
C1142      C1150   1.401       .  A
C1143      C1152   1.402       .  A
C1143      C1144   1.404       .  A
C1144      C1145   1.399       .  A
C1144      H1155   1.084       .  S
C1145      C1146   1.403       .  A
C1145      H1156   1.084       .  S
C1146      C1147   1.401       .  A
C1147      C1148   1.403       .  A
C1147      H1157   1.084       .  S
C1148      C1149   1.403       .  A
C1149      H1158   1.085       .  S
C1150      C1151   1.405       .  A
C1150      H1159   1.084       .  S
C1151      C1152   1.406       .  A
C1152      H1160   1.084       .  S
C1161      C1162   1.399       .  A
C1161      C1166   1.406       .  A
C1161      H1177   1.084       .  S
C1162      C1163   1.401       .  A
C1162      H1178   1.083       .  S
C1163      C1173   1.409       .  A
C1163      C1164   1.417       .  A
C1164      C1170   1.416       .  A
C1164      C1165   1.399       .  A
C1165      C1167   1.411       .  A
C1165      C1166   1.410       .  A
C1166      C1174   1.397       .  A
C1167      C1176   1.396       .  A
C1167      C1168   1.405       .  A
C1168      C1169   1.398       .  A
C1168      H1179   1.084       .  S
C1169      C1170   1.401       .  A
C1169      H1180   1.083       .  S
C1170      C1171   1.404       .  A
C1171      C1172   1.406       .  A
C1171      H1181   1.084       .  S
C1172      C1173   1.408       .  A
C1173      H1182   1.084       .  S
C1174      C1175   1.405       .  A
C1174      H1183   1.085       .  S
C1175      C1176   1.402       .  A
C1176      H1184   1.085       .  S
C1185      C1186   1.402       .  A
C1185      C1190   1.406       .  A
C1185      H1201   1.084       .  S
C1186      C1187   1.405       .  A
C1186      H1202   1.084       .  S
C1187      C1197   1.411       .  A
C1187      C1188   1.415       .  A
C1188      C1194   1.409       .  A
C1188      C1189   1.415       .  A
C1189      C1191   1.415       .  A
C1189      C1190   1.410       .  A
C1190      C1198   1.406       .  A
C1191      C1200   1.409       .  A
C1191      C1192   1.403       .  A
C1192      C1193   1.399       .  A
C1192      H1203   1.083       .  S
C1193      C1194   1.404       .  A
C1193      H1204   1.084       .  S
C1194      C1195   1.402       .  A
C1195      C1196   1.410       .  A
C1195      H1205   1.084       .  S
C1196      C1197   1.408       .  A
C1197      H1206   1.084       .  S
C1198      C1199   1.409       .  A
C1198      H1207   1.085       .  S
C1199      C1200   1.404       .  A
C1200      H1208   1.084       .  S
C1209      C1210   1.400       .  A
C1209      C1214   1.403       .  A
C1209      H1225   1.084       .  S
C1210      C1211   1.405       .  A
C1210      H1226   1.084       .  S
C1211      C1221   1.401       .  A
C1211      C1212   1.409       .  A
C1212      C1218   1.416       .  A
C1212      C1213   1.414       .  A
C1213      C1215   1.409       .  A
C1213      C1214   1.416       .  A
C1214      C1222   1.408   1_556  A
C1215      C1224   1.402       .  A
C1215      C1216   1.405       .  A
C1216      C1217   1.400       .  A
C1216      H1227   1.084       .  S
C1217      C1218   1.403       .  A
C1217      H1228   1.084       .  S
C1218      C1219   1.410       .  A
C1219      C1220   1.403       .  A
C1219      H1229   1.084       .  S
C1220      C1221   1.409       .  A
C1221      H1230   1.085       .  S
C1222      C1223   1.403       .  A
C1222      H1231   1.084       .  S
C1223      C1224   1.408   1_554  A
C1224      H1232   1.085       .  S
