geometry optimzed in LAMMPS
_audit_creation_date              2020-11-30 
_audit_creation_method            'lammps2cif' 
_symmetry_space_group_name_H-M    'P1' 
_symmetry_Int_Tables_number       1 
_symmetry_cell_setting            triclinic 
loop_ 
_symmetry_equiv_pos_as_xyz 
  x,y,z 
_cell_length_a                    34.18523797 
_cell_length_b                    58.13556996973766 
_cell_length_c                    56.17477935285842 
_cell_angle_alpha                 89.95062332739357 
_cell_angle_beta                  89.895389320029 
_cell_angle_gamma                 89.93663712345145 
loop_ 
_atom_site_label 
_atom_site_type_symbol 
_atom_site_fract_x 
_atom_site_fract_y 
_atom_site_fract_z 
_atom_site_charge 
C1          C  0.71899161  0.86797045  0.00003230     0.86500
C2          C  0.71521387  0.88867216  0.98266598    -0.53700
C3          C  0.67943901  0.89084412  0.97155183     0.09400
C4          C  0.65022673  0.87219716  0.98003169     0.20400
C5          C  0.68541510  0.87262818  0.01757858    -0.54500
C6          C  0.64937820  0.87512775  0.00745570     0.09500
C7          C  0.70630044  0.84693147  0.98588297    -0.54000
C8          C  0.67057040  0.84889592  0.97557470     0.10100
H9          H  0.73847273  0.90115677  0.98050710     0.14600
H10         H  0.62137962  0.87293825  0.97122021     0.00400
H11         H  0.69008453  0.87624344  0.03627697     0.14900
H12         H  0.72392865  0.83142134  0.98450334     0.14700
C13         C  0.29237430  0.87884337  0.47332452     0.86500
C14         C  0.29740685  0.89568525  0.49369740    -0.53700
C15         C  0.33365190  0.89570131  0.50338924     0.09400
C16         C  0.36226053  0.87792523  0.49207879     0.20400
C17         C  0.32605878  0.88463888  0.45582550    -0.54500
C18         C  0.36326394  0.88400807  0.46534306     0.09500
C19         C  0.30505241  0.85518257  0.48315404    -0.54000
C20         C  0.34139126  0.85452376  0.49315641     0.10100
H21         H  0.27465386  0.90763112  0.49921071     0.14600
H22         H  0.39104121  0.87668646  0.50045257     0.00400
H23         H  0.32064811  0.88890402  0.43741171     0.14900
H24         H  0.28752417  0.83976695  0.48129624     0.14700
C25         C  0.44747454  0.03521318  0.65476137     0.86500
C26         C  0.41198077  0.05175397  0.65571478    -0.53700
C27         C  0.39541920  0.05650498  0.63411630     0.09400
C28         C  0.41761311  0.04550225  0.61302682     0.20400
C29         C  0.43311273  0.01430053  0.64046754    -0.54500
C30         C  0.41779321  0.01944777  0.61854697     0.09500
C31         C  0.47544397  0.04801656  0.63790308    -0.54000
C32         C  0.46053389  0.05342682  0.61607764     0.10100
H33         H  0.40108951  0.05979332  0.67178120     0.14600
H34         H  0.40493139  0.04984282  0.59543544     0.00400
H35         H  0.43532000  0.99680022  0.64710436     0.14900
H36         H  0.50486835  0.05292887  0.64302707     0.14700
C37         C  0.58562906  0.03631635  0.81600517     0.86500
C38         C  0.62789851  0.04575557  0.81480137    -0.53700
C39         C  0.64453833  0.04986610  0.83649689     0.09400
C40         C  0.61816685  0.04320390  0.85765069     0.20400
C41         C  0.59076638  0.01440109  0.83145834    -0.54500
C42         C  0.60785668  0.01771885  0.85329982     0.09500
C43         C  0.56335638  0.05310416  0.83199696    -0.54000
C44         C  0.57921562  0.05633373  0.85399711     0.10100
H45         H  0.64355181  0.04876266  0.79826435     0.14600
H46         H  0.63273908  0.04659262  0.87487238     0.00400
H47         H  0.58297398  0.99750484  0.82536121     0.14900
H48         H  0.53535029  0.06047953  0.82693775     0.14700
O49         O  0.05639390  0.18259517  0.64224532    -0.57800
C50         C  0.09291798  0.20843006  0.58177949     0.74800
O51         O  0.10866845  0.13075252  0.60039645    -0.59000
C52         C  0.04345870  0.16435391  0.65164550     0.74800
C53         C  0.99921994  0.15522491  0.57546301     0.77200
Cd54       Cd  0.06794491  0.16613499  0.60300676     1.37500
O55         O  0.07711789  0.20794071  0.60216296    -0.57800
O56         O  0.00005611  0.17145006  0.59040820    -0.56600
C57         C  0.13936760  0.14023699  0.60831418     0.77200
O58         O  0.03050099  0.14374595  0.57291188    -0.59000
O59         O  0.09641530  0.18939498  0.57100835    -0.57400
O60         O  0.04103503  0.14692006  0.63829975    -0.57400
O61         O  0.13711847  0.16153686  0.61242785    -0.56600
O62         O  0.94051361  0.19358676  0.87815492    -0.57800
C63         C  0.98400542  0.16110025  0.82656805     0.74800
O64         O  0.01007233  0.13462232  0.90616599    -0.59000
C65         C  0.94559369  0.19640823  0.90025036     0.74800
C66         C  0.90224736  0.12492274  0.87442410     0.77200
Cd67       Cd  0.96900111  0.15499372  0.87634037     1.37500
O68         O  0.98877395  0.17749405  0.84107055    -0.57800
O69         O  0.89909551  0.14613388  0.87894615    -0.56600
C70         C  0.04227793  0.14180442  0.89780506     0.77200
O71         O  0.93666923  0.11697476  0.87309180    -0.59000
O72         O  0.97291324  0.14210497  0.83514853    -0.57400
O73         O  0.96085565  0.17986246  0.91159373    -0.57400
O74         O  0.04040593  0.15418311  0.87934920    -0.56600
C75         C  0.81000276  0.36944372  0.99395189     0.86500
C76         C  0.84303253  0.37773376  0.01042422    -0.53700
C77         C  0.88002206  0.37798589  0.00070228     0.09400
C78         C  0.87947631  0.37113229  0.97411389     0.20400
C79         C  0.81237158  0.38539584  0.97214698    -0.54500
C80         C  0.84865538  0.38720420  0.96236146     0.09500
C81         C  0.82455472  0.34630459  0.98345847    -0.54000
C82         C  0.86114711  0.34698040  0.97338563     0.10100
H83         H  0.83692929  0.38353053  0.02840259     0.14600
H84         H  0.90824043  0.37094065  0.96548222     0.00400
H85         H  0.78767470  0.39481283  0.96495693     0.14900
H86         H  0.80699000  0.33078744  0.98313636     0.14700
C87         C  0.23930461  0.37044198  0.47305776     0.86500
C88         C  0.20668001  0.37373343  0.45458068    -0.53700
C89         C  0.16963248  0.37406768  0.46358673     0.09400
C90         C  0.16854859  0.37098300  0.49093134     0.20400
C91         C  0.23095777  0.39081229  0.49033187    -0.54500
C92         C  0.19392847  0.39103786  0.50036245     0.09500
C93         C  0.22841101  0.34872053  0.48684299    -0.54000
C94         C  0.19178872  0.34890922  0.49614045     0.10100
H95         H  0.21231229  0.37848040  0.43623756     0.14600
H96         H  0.13889882  0.36991240  0.49870614     0.00400
H97         H  0.25202669  0.40445573  0.49293513     0.14900
H98         H  0.24811818  0.33418508  0.48894858     0.14700
C99         C  0.08497483  0.53442479  0.65457615     0.86500
C100        C  0.05614122  0.54768139  0.63909120    -0.53700
C101        C  0.06459121  0.54819370  0.61559599     0.09400
C102        C  0.10247532  0.53483206  0.60926518     0.20400
C103        C  0.08548372  0.51021920  0.64257806    -0.54500
C104        C  0.09567634  0.51043543  0.61885372     0.09500
C105        C  0.12491002  0.54508728  0.64863318    -0.54000
C106        C  0.13609866  0.54424384  0.62503722     0.17300
H107        H  0.02964207  0.55548969  0.64609320     0.14600
H108        H  0.10749943  0.53491479  0.59019537     0.00400
H109        H  0.07727102  0.49445054  0.65151916     0.14900
H110        H  0.14260603  0.55282674  0.66244636     0.14700
C111        C  0.95745357  0.53952377  0.82001721     0.86500
C112        C  0.98672920  0.54564720  0.83976701    -0.53700
C113        C  0.97133903  0.54655267  0.86205034     0.09400
C114        C  0.92815833  0.53889312  0.86327552     0.20400
C115        C  0.94278575  0.51564374  0.82828180    -0.54500
C116        C  0.92747179  0.51519701  0.85084679     0.09500
C117        C  0.92265634  0.55594864  0.82390943    -0.54000
C118        C  0.90617189  0.55533221  0.84624466     0.10100
H119        H  0.01755819  0.54887417  0.83681167     0.14600
H120        H  0.91623586  0.53799230  0.88158018     0.00400
H121        H  0.94565692  0.50019311  0.81762733     0.14900
H122        H  0.91167427  0.56698679  0.80982327     0.14700
O123        O  0.58401175  0.70667054  0.86414431    -0.57800
C124        C  0.55592036  0.66456624  0.81063584     0.74800
O125        O  0.62017285  0.63107398  0.86255229    -0.59000
C126        C  0.59378817  0.70636390  0.88591721     0.74800
C127        C  0.50736513  0.65012028  0.88691391     0.77200
Cd128      Cd  0.57591100  0.66473340  0.86086118     1.37500
O129        O  0.55927478  0.68315619  0.82213341    -0.57800
O130        O  0.50979475  0.66937185  0.87663673    -0.56600
C131        C  0.65164684  0.64241891  0.86410073     0.77200
O132        O  0.53649281  0.63682543  0.88482686    -0.59000
O133        O  0.56230495  0.64628568  0.82215015    -0.57400
O134        O  0.59536020  0.68690310  0.89602474    -0.57400
O135        O  0.64778550  0.66401351  0.86395427    -0.56600
O136        O  0.46498771  0.67948310  0.62749513    -0.57800
C137        C  0.42866183  0.70344353  0.56498914     0.74800
O138        O  0.49302059  0.63286054  0.56462072    -0.59000
C139        C  0.48124315  0.66216194  0.63690285     0.74800
C140        C  0.38470578  0.63304442  0.59375012     0.77200
Cd141      Cd  0.45409389  0.66131791  0.58825557     1.37500
O142        O  0.45258756  0.70349044  0.58212038    -0.57800
O143        O  0.39298702  0.64910617  0.60804445    -0.56600
C144        C  0.52181903  0.64608653  0.56105111     0.77200
O145        O  0.40822092  0.63017765  0.57654170    -0.59000
O146        O  0.41565460  0.68399939  0.55874449    -0.57400
O147        O  0.48598616  0.64476958  0.62370116    -0.57400
O148        O  0.51889949  0.66612171  0.56956523    -0.56600
C149        C  0.24806966  0.63076525  0.97266440     0.86500
C150        C  0.24437071  0.61495102  0.99462871    -0.53700
C151        C  0.20782941  0.61388786  0.00441936     0.09400
C152        C  0.17764477  0.62884390  0.99103748     0.20400
C153        C  0.21658638  0.62058950  0.95590040    -0.54500
C154        C  0.17920048  0.61969231  0.96515352     0.09500
C155        C  0.23181209  0.65398657  0.98072916    -0.54000
C156        C  0.19540504  0.65317039  0.99043488     0.10100
H157        H  0.26702321  0.60334219  0.00051802     0.14600
H158        H  0.14815256  0.62899975  0.99910453     0.00400
H159        H  0.22403480  0.61367303  0.93854430     0.14900
H160        H  0.24834602  0.66988280  0.97934163     0.14700
C161        C  0.79304584  0.62144489  0.49147993     0.86500
C162        C  0.80515125  0.60432005  0.47155106    -0.53700
C163        C  0.84391503  0.60539935  0.46481828     0.09400
C164        C  0.86741092  0.62302246  0.47973248     0.20400
C165        C  0.82124785  0.61440791  0.51144719    -0.54500
C166        C  0.85976889  0.61558692  0.50572658     0.09500
C167        C  0.80711237  0.64495427  0.48239410    -0.54000
C168        C  0.84580699  0.64619004  0.47638662     0.10100
H169        H  0.78630943  0.59100177  0.46461221     0.14600
H170        H  0.89888352  0.62423480  0.47535550     0.00400
H171        H  0.81144544  0.60755244  0.52843904     0.14900
H172        H  0.78729676  0.65942734  0.48031887     0.14700
C173        C  0.08946236  0.46699334  0.15114105     0.86500
C174        C  0.12970839  0.45497057  0.14838022    -0.53700
C175        C  0.14395452  0.45323624  0.12549732     0.09400
C176        C  0.11497436  0.46377933  0.10729776     0.20400
C177        C  0.09693413  0.49038276  0.13867022    -0.54500
C178        C  0.11011399  0.48884121  0.11564197     0.09500
C179        C  0.06229097  0.45379333  0.13479038    -0.54000
C180        C  0.07475841  0.45198476  0.11202186     0.10100
H181        H  0.14640517  0.44911482  0.16350051     0.14600
H182        H  0.12490934  0.46333456  0.08873735     0.00400
H183        H  0.09377101  0.50677199  0.14764955     0.14900
H184        H  0.03471689  0.44647203  0.14078240     0.14700
C185        C  0.95617328  0.45951914  0.31546648     0.86500
C186        C  0.91716318  0.44615947  0.31538556    -0.53700
C187        C  0.90107528  0.44222210  0.33723375     0.09400
C188        C  0.92491148  0.45300081  0.35767494     0.20400
C189        C  0.94451472  0.48199605  0.32853803    -0.54500
C190        C  0.92841553  0.47879536  0.35082976     0.09500
C191        C  0.98251419  0.44687933  0.33307608    -0.54000
C192        C  0.96670725  0.44296994  0.35499949     0.10100
H193        H  0.90173387  0.44148428  0.29933044     0.14600
H194        H  0.91155087  0.44996974  0.37538311     0.00400
H195        H  0.94825673  0.49895174  0.32076465     0.14900
H196        H  0.01192940  0.44140362  0.32838726     0.14700
O197        O  0.57136740  0.29053729  0.37139083    -0.57800
C198        C  0.55304067  0.33247047  0.32029414     0.74800
O199        O  0.53911533  0.35756569  0.40055982    -0.59000
C200        C  0.59081200  0.28870773  0.39044997     0.74800
C201        C  0.64491212  0.35905656  0.36626148     0.77200
Cd202      Cd  0.57271798  0.33296024  0.37005664     1.37500
O203        O  0.56819699  0.31514488  0.33026848    -0.57800
O204        O  0.64449417  0.33751688  0.36926913    -0.56600
C205        C  0.50629399  0.34771200  0.39850740     0.77200
O206        O  0.61193801  0.36895486  0.36647835    -0.59000
O207        O  0.54602258  0.34964597  0.33338761    -0.57400
O208        O  0.60137409  0.30728514  0.40032705    -0.57400
O209        O  0.50446231  0.33147795  0.38363396    -0.56600
O210        O  0.48562947  0.32026609  0.13424528    -0.57800
C211        C  0.44620867  0.29704301  0.07464578     0.74800
O212        O  0.42001719  0.36770792  0.08313910    -0.59000
C213        C  0.49625531  0.33833136  0.14498000     0.74800
C214        C  0.54074791  0.35406848  0.07065671     0.77200
Cd215      Cd  0.47082879  0.33965130  0.09645816     1.37500
O216        O  0.46602526  0.29746823  0.09364831    -0.57800
O217        O  0.53156103  0.33326441  0.07376317    -0.56600
C218        C  0.39890509  0.36588766  0.10164275     0.77200
O219        O  0.51711765  0.36882462  0.07894498    -0.59000
O220        O  0.43685083  0.31634774  0.06583506    -0.57400
O221        O  0.49700338  0.35672602  0.13296907    -0.57400
O222        O  0.41070037  0.35174346  0.11712173    -0.56600
C223        C  0.73599715  0.12782606  0.49592928     0.86500
C224        C  0.70479018  0.12263690  0.51493885    -0.53700
C225        C  0.66793701  0.11881801  0.50664590     0.09400
C226        C  0.66531788  0.12069135  0.47917533     0.20400
C227        C  0.73250240  0.10660761  0.47928881    -0.54500
C228        C  0.69581509  0.10315730  0.47001212     0.09500
C229        C  0.71943719  0.14790953  0.48147872    -0.54000
C230        C  0.68244703  0.14463907  0.47290067     0.10100
H231        H  0.71164944  0.12085507  0.53365146     0.14600
H232        H  0.63558142  0.11763799  0.47197535     0.00400
H233        H  0.75648899  0.09494499  0.47550869     0.14900
H234        H  0.73543338  0.16384624  0.47881753     0.14700
C235        C  0.31016549  0.12741219  0.97449034     0.86500
C236        C  0.34443940  0.11993538  0.95853950    -0.53700
C237        C  0.38050934  0.11905452  0.96925321     0.09400
C238        C  0.37763875  0.12405399  0.99631824     0.20400
C239        C  0.31025612  0.11007521  0.99504970    -0.54500
C240        C  0.34545489  0.10738998  0.00586971     0.09500
C241        C  0.32381028  0.14973093  0.98702312    -0.54000
C242        C  0.35945713  0.14825038  0.99799344     0.10100
H243        H  0.33979060  0.11515749  0.94010812     0.14600
H244        H  0.40550201  0.12351985  0.00605354     0.00400
H245        H  0.28481835  0.10020301  0.00046089     0.14900
H246        H  0.30638799  0.16527348  0.98810461     0.14700
C247        C  0.43763300  0.96151471  0.15835422     0.86500
C248        C  0.46510834  0.94908830  0.14070556    -0.53700
C249        C  0.44972207  0.94530808  0.11850105     0.09400
C250        C  0.40765385  0.95494743  0.11592341     0.20400
C251        C  0.42712750  0.98381657  0.14467888    -0.54500
C252        C  0.41083719  0.98052846  0.12277612     0.09500
C253        C  0.39988258  0.94719238  0.15821044    -0.54000
C254        C  0.38379600  0.94372476  0.13623445     0.10100
H255        H  0.49455472  0.94377237  0.14543653     0.14600
H256        H  0.39462971  0.95236254  0.09807548     0.00400
H257        H  0.43431380  0.00093384  0.15052745     0.14900
H258        H  0.38710775  0.94023256  0.17437021     0.14700
C259        C  0.58629641  0.96197583  0.31598787     0.86500
C260        C  0.55792988  0.94996127  0.33323466    -0.53700
C261        C  0.57168195  0.94667239  0.35559752     0.09400
C262        C  0.61424915  0.95481008  0.35886870     0.20400
C263        C  0.60061074  0.98377123  0.32877178    -0.54500
C264        C  0.61484587  0.98036651  0.35125780     0.09500
C265        C  0.62185737  0.94537635  0.31677420    -0.54000
C266        C  0.63737040  0.94196284  0.33917525     0.10100
H267        H  0.52938158  0.94358713  0.32795871     0.14600
H268        H  0.62532247  0.95218098  0.37719153     0.00400
H269        H  0.60006470  0.00054829  0.32029827     0.14900
H270        H  0.63336460  0.93650778  0.30132289     0.14700
O271        O  0.05397066  0.79361917  0.08496318    -0.57800
C272        C  0.03968621  0.82635990  0.14608830     0.74800
O273        O  0.10911331  0.86299398  0.08405102    -0.59000
C274        C  0.08339306  0.79357091  0.07137723     0.74800
C275        C  0.98726994  0.84889729  0.07431399     0.77200
Cd276      Cd  0.05862781  0.83428605  0.09728085     1.37500
O277        O  0.06277440  0.81311109  0.13496527    -0.57800
O278        O  0.99045389  0.83076126  0.08645876    -0.56600
C279        C  0.12586428  0.86380824  0.10417491     0.77200
O280        O  0.01738892  0.86156414  0.07309558    -0.59000
O281        O  0.02491568  0.84295967  0.13457774    -0.57400
O282        O  0.10157511  0.81241612  0.06980118    -0.57400
O283        O  0.10986612  0.85249655  0.12070938    -0.56600
O284        O  0.96205339  0.81138591  0.33245575    -0.57800
C285        C  0.94071464  0.79152081  0.39596262     0.74800
O286        O  0.00299207  0.86386022  0.38989427    -0.59000
C287        C  0.98342754  0.82555366  0.32128767     0.74800
C288        C  0.89464270  0.85931983  0.36574634     0.77200
Cd289      Cd  0.96486312  0.83233399  0.37069840     1.37500
O290        O  0.96664166  0.79066960  0.37988332    -0.57800
O291        O  0.91453286  0.85263654  0.34810091    -0.56600
C292        C  0.03286218  0.85156233  0.39380173     0.77200
O293        O  0.90857879  0.85486441  0.38610343    -0.59000
O294        O  0.92623549  0.81105387  0.40039993    -0.57400
O295        O  0.99765602  0.84194755  0.33327403    -0.57400
O296        O  0.03058231  0.83070698  0.38770778    -0.56600
C297        C  0.99024473  0.82375129  0.29537338     0.01300
C298        C  0.00328203  0.80293892  0.28509123     0.04200
C299        C  0.01038675  0.80173702  0.26041650    -0.11900
C300        C  0.00416168  0.82121718  0.24599943     0.23500
C301        C  0.99027073  0.84179266  0.25610780    -0.12500
C302        C  0.98335173  0.84310355  0.28071826     0.04900
C303        C  0.01390304  0.82060511  0.22033700     0.27300
C304        C  0.05169660  0.82694792  0.21281216    -0.13100
C305        C  0.06032755  0.82832845  0.18841533     0.05400
C306        C  0.03129309  0.82316149  0.17150570    -0.09100
C307        C  0.99373956  0.81630748  0.17898940     0.06200
C308        C  0.98491599  0.81523353  0.20343190    -0.13500
Br309      Br  0.98097638  0.86823772  0.23604246    -0.05600
Br310      Br  0.01336425  0.77639890  0.30479832     0.00100
Br311      Br  0.11120003  0.83873773  0.17821042     0.00500
Br312      Br  0.93282827  0.80739992  0.21384954    -0.03900
Br313      Br  0.96271395  0.87127638  0.29398103     0.00600
Br314      Br  0.02937234  0.77363427  0.24623340    -0.03200
Br315      Br  0.09105523  0.83477840  0.23601912    -0.04000
Br316      Br  0.95466757  0.80824629  0.15571032    -0.00100
C317        C  0.67440040  0.92845003  0.34351522     0.01300
C318        C  0.70855686  0.93353955  0.33004627     0.04200
C319        C  0.74337289  0.92111030  0.33359823    -0.11900
C320        C  0.74558053  0.90442597  0.35158910     0.23500
C321        C  0.71268753  0.89975219  0.36577504    -0.12500
C322        C  0.67731007  0.91172445  0.36196714     0.04900
C323        C  0.78316704  0.89239293  0.35601963     0.27300
C324        C  0.79285912  0.87273064  0.34269466    -0.13100
C325        C  0.82919354  0.86186280  0.34602562     0.05400
C326        C  0.85641401  0.87087926  0.36252170    -0.09100
C327        C  0.84652169  0.89058835  0.37594726     0.06200
C328        C  0.80979167  0.90116457  0.37284236    -0.13500
Br329      Br  0.71673642  0.87678712  0.39057983    -0.05600
Br330      Br  0.71121272  0.96030661  0.30992097     0.00100
Br331      Br  0.84033690  0.83390647  0.32865311     0.00500
Br332      Br  0.79581485  0.92785943  0.39142997    -0.03900
Br333      Br  0.63463808  0.90505770  0.38319792     0.00600
Br334      Br  0.78894314  0.92727170  0.31418225    -0.03200
Br335      Br  0.75603385  0.86078236  0.31981961    -0.04000
Br336      Br  0.88390762  0.90407631  0.39752970    -0.00100
C337        C  0.34556195  0.93154146  0.13242808     0.01300
C338        C  0.34140128  0.91547166  0.11360791     0.04200
C339        C  0.30445212  0.90631946  0.10802720    -0.11900
C340        C  0.27178616  0.91151599  0.12225252     0.23500
C341        C  0.27579033  0.92653697  0.14169798    -0.12500
C342        C  0.31207543  0.93709982  0.14641514     0.04900
C343        C  0.23393919  0.89974882  0.11770486     0.27300
C344        C  0.20433159  0.91053294  0.10426964    -0.13100
C345        C  0.16870285  0.89902603  0.09991705     0.05400
C346        C  0.16307562  0.87635613  0.10837429    -0.09100
C347        C  0.19343967  0.86543483  0.12128620     0.06200
C348        C  0.22830512  0.87726400  0.12628714    -0.13500
Br349      Br  0.23110958  0.93254930  0.16185002    -0.05600
Br350      Br  0.38599384  0.90402191  0.09624667     0.00100
Br351      Br  0.12722391  0.91484011  0.08337123     0.00500
Br352      Br  0.26900815  0.86257727  0.14470397    -0.03900
Br353      Br  0.31357434  0.96073680  0.17064353     0.00600
Br354      Br  0.29820196  0.88638199  0.08078513    -0.03200
Br355      Br  0.21312310  0.94094613  0.09158948    -0.04000
Br356      Br  0.18911754  0.83357909  0.13080667    -0.00100
C357        C  0.45563020  0.96408722  0.18367921     0.01300
C358        C  0.45814479  0.98554408  0.19581264     0.04200
C359        C  0.48481287  0.98840985  0.21468929    -0.11900
C360        C  0.50258864  0.96912122  0.22526616     0.23500
C361        C  0.49431765  0.94711513  0.21633241    -0.12500
C362        C  0.47114491  0.94452784  0.19577081     0.04900
C363        C  0.52527054  0.97131121  0.24780396     0.27300
C364        C  0.56615865  0.96882870  0.24782970    -0.13100
C365        C  0.58686928  0.96750610  0.26956142     0.05400
C366        C  0.56650278  0.96770015  0.29172225    -0.09100
C367        C  0.52640070  0.97476343  0.29104861     0.06200
C368        C  0.50561068  0.97494501  0.26944605    -0.13500
Br369      Br  0.51417604  0.92037419  0.23295778    -0.05600
Br370      Br  0.41600404  0.00770680  0.19454714     0.00100
Br371      Br  0.64276730  0.96998443  0.26779821     0.00500
Br372      Br  0.44947314  0.97923511  0.26960374    -0.03900
Br373      Br  0.45691041  0.91370757  0.18693762     0.00600
Br374      Br  0.49578036  0.01883764  0.22666752    -0.03200
Br375      Br  0.59350152  0.96734301  0.21772860    -0.04000
Br376      Br  0.49942527  0.98686846  0.31869646    -0.00100
C377        C  0.39960813  0.99997357  0.10655739     0.01300
C378        C  0.36134169  0.00129611  0.09698996     0.04200
C379        C  0.35158048  0.01847099  0.08035669    -0.11900
C380        C  0.37944939  0.03497271  0.07357244     0.23500
C381        C  0.41725324  0.03426155  0.08339687    -0.12500
C382        C  0.42747192  0.01686312  0.09977885     0.04900
C383        C  0.36890931  0.05308600  0.05602823     0.27300
C384        C  0.37645880  0.04967666  0.03162643    -0.13100
C385        C  0.36685650  0.06697511  0.01507845     0.05400
C386        C  0.35175908  0.08825361  0.02305068    -0.09100
C387        C  0.33868921  0.09007483  0.04680465     0.06200
C388        C  0.34891116  0.07303293  0.06350061    -0.13500
Br389      Br  0.45518660  0.05704123  0.07379361    -0.05600
Br390      Br  0.32070229  0.98080719  0.10731552     0.00100
Br391      Br  0.36913817  0.06014896  0.98145749     0.00500
Br392      Br  0.33530541  0.07684939  0.09659127    -0.03900
Br393      Br  0.48071835  0.01557139  0.11122131     0.00600
Br394      Br  0.29985905  0.01942262  0.06650367    -0.03200
Br395      Br  0.39929972  0.02111117  0.02093827    -0.04000
Br396      Br  0.30199274  0.11384602  0.05568225    -0.00100
C397        C  0.62897965  0.99959024  0.36707883     0.01300
C398        C  0.60601600  0.01976503  0.37061688     0.04200
C399        C  0.61824101  0.03685905  0.38677556    -0.11900
C400        C  0.65293754  0.03400878  0.39983700     0.23500
C401        C  0.67606082  0.01436860  0.39635688    -0.12500
C402        C  0.66484850  0.99758387  0.37969374     0.04900
C403        C  0.66466073  0.05135505  0.41785295     0.27300
C404        C  0.69319598  0.06795248  0.41241426    -0.13100
C405        C  0.70431880  0.08431886  0.42961804     0.05400
C406        C  0.68637223  0.08452174  0.45240670    -0.09100
C407        C  0.65806557  0.06744613  0.45769494     0.06200
C408        C  0.64772949  0.05082997  0.44062473    -0.13500
Br409      Br  0.72300753  0.01037302  0.41512581    -0.05600
Br410      Br  0.55642428  0.02426081  0.35488839     0.00100
Br411      Br  0.74221462  0.10724978  0.42076615     0.00500
Br412      Br  0.61064209  0.02682384  0.44837669    -0.03900
Br413      Br  0.70141743  0.97321040  0.37362631     0.00600
Br414      Br  0.58693901  0.06415266  0.39177658    -0.03200
Br415      Br  0.71663085  0.06825003  0.38109613    -0.04000
Br416      Br  0.63354202  0.06561275  0.48829770    -0.00100
C417        C  0.37877302  0.16880425  0.00926383     0.01300
C418        C  0.38710103  0.18851414  0.99533402     0.04200
C419        C  0.39952126  0.20912385  0.00605241    -0.11900
C420        C  0.40360332  0.21040921  0.03088207     0.23500
C421        C  0.39799741  0.19054364  0.04478025    -0.12500
C422        C  0.38735181  0.16958519  0.03390916     0.04900
C423        C  0.41452558  0.23259499  0.04224765     0.27300
C424        C  0.45411076  0.23774443  0.04668097    -0.13100
C425        C  0.46444549  0.25893335  0.05704994     0.05400
C426        C  0.43518202  0.27503823  0.06322270    -0.09100
C427        C  0.39556833  0.26992535  0.05859785     0.06200
C428        C  0.38531168  0.24876611  0.04810353    -0.13500
Br429      Br  0.40400522  0.19240171  0.07889160    -0.05600
Br430      Br  0.38555234  0.18705801  0.96129128     0.00100
Br431      Br  0.51896535  0.26639406  0.06152221     0.00500
Br432      Br  0.33118417  0.24173278  0.04174234    -0.03900
Br433      Br  0.38773643  0.14222183  0.05295793     0.00600
Br434      Br  0.41101051  0.23582925  0.98678893    -0.03200
Br435      Br  0.49412344  0.21577729  0.03820158    -0.04000
Br436      Br  0.35512524  0.29145417  0.06750144    -0.00100
C437        C  0.54483002  0.33295773  0.29457108     0.01300
C438        C  0.52089648  0.31601282  0.28408914     0.04200
C439        C  0.51246853  0.31706698  0.25960489    -0.11900
C440        C  0.52874227  0.33469021  0.24550541     0.23500
C441        C  0.55314662  0.35137095  0.25588282    -0.12500
C442        C  0.56107247  0.35057784  0.28038980     0.04900
C443        C  0.52053924  0.33566785  0.21967535     0.27300
C444        C  0.54268333  0.32217637  0.20376513    -0.13100
C445        C  0.53539609  0.32341568  0.17917653     0.05400
C446        C  0.50583720  0.33808393  0.17049948    -0.09100
C447        C  0.48412215  0.35188442  0.18641938     0.06200
C448        C  0.49138347  0.35058831  0.21099602    -0.13500
Br449      Br  0.57591691  0.37520418  0.23634035    -0.05600
Br450      Br  0.49860525  0.29178627  0.30329697     0.00100
Br451      Br  0.56724495  0.30594776  0.15728952     0.00500
Br452      Br  0.46115853  0.36901546  0.23292327    -0.03900
Br453      Br  0.59602264  0.37296188  0.29421372     0.00600
Br454      Br  0.47814017  0.29467286  0.24530735    -0.03200
Br455      Br  0.58313431  0.30213508  0.21577806    -0.04000
Br456      Br  0.44326945  0.37191464  0.17477030    -0.00100
C457        C  0.60115402  0.26602721  0.40058076     0.01300
C458        C  0.57163940  0.25050720  0.40769101     0.04200
C459        C  0.58170601  0.22971735  0.41905934    -0.11900
C460        C  0.62133656  0.22394842  0.42251708     0.23500
C461        C  0.65085963  0.23895818  0.41436492    -0.12500
C462        C  0.64080585  0.25999726  0.40355144     0.04900
C463        C  0.63224871  0.20279800  0.43588796     0.27300
C464        C  0.64173475  0.20442756  0.46015666    -0.13100
C465        C  0.65624502  0.18513748  0.47243080     0.05400
C466        C  0.66096581  0.16378019  0.46063039    -0.09100
C467        C  0.64796658  0.16177157  0.43679525     0.06200
C468        C  0.63436305  0.18133501  0.42436751    -0.13500
Br469      Br  0.70516211  0.23077758  0.41845491    -0.05600
Br470      Br  0.51735608  0.25795147  0.40256603     0.00100
Br471      Br  0.66815317  0.18814990  0.50581394     0.00500
Br472      Br  0.61958429  0.17909187  0.39128462    -0.03900
Br473      Br  0.68140792  0.28017943  0.39192077     0.00600
Br474      Br  0.54132920  0.20952796  0.43085943    -0.03200
Br475      Br  0.63509266  0.23340729  0.47646955    -0.04000
Br476      Br  0.64887028  0.13270175  0.42061313    -0.00100
C477        C  0.68192039  0.37173520  0.36180984     0.01300
C478        C  0.70877973  0.36339339  0.34465601     0.04200
C479        C  0.74365592  0.37545053  0.33998833    -0.11900
C480        C  0.75220597  0.39579822  0.35248270     0.23500
C481        C  0.72545455  0.40430086  0.36944991    -0.12500
C482        C  0.69036086  0.39235068  0.37409918     0.04900
C483        C  0.79011350  0.40771235  0.34836188     0.27300
C484        C  0.82359913  0.40056723  0.36083702    -0.13100
C485        C  0.85990115  0.41123677  0.35661564     0.05400
C486        C  0.86286099  0.42991064  0.34050517    -0.09100
C487        C  0.82884081  0.43705100  0.32797006     0.06200
C488        C  0.79288095  0.42570805  0.33168879    -0.13500
Br489      Br  0.73741580  0.43224792  0.38645571    -0.05600
Br490      Br  0.69738383  0.33597877  0.32653384     0.00100
Br491      Br  0.90542116  0.39878484  0.37206177     0.00500
Br492      Br  0.74694780  0.43477226  0.31406290    -0.03900
Br493      Br  0.65508536  0.40369806  0.39824734     0.00600
Br494      Br  0.77993066  0.36428157  0.31626766    -0.03200
Br495      Br  0.81941772  0.37589851  0.38377625    -0.04000
Br496      Br  0.82966572  0.46362639  0.30721962    -0.00100
C497        C  0.36267162  0.37969966  0.10534726     0.01300
C498        C  0.36186915  0.40333676  0.09932683     0.04200
C499        C  0.32740765  0.41630568  0.10255371    -0.11900
C500        C  0.29413863  0.40617942  0.11300857     0.23500
C501        C  0.29529577  0.38292896  0.12002455    -0.12500
C502        C  0.32899258  0.36955385  0.11568473     0.04900
C503        C  0.25708272  0.41954505  0.11522764     0.27300
C504        C  0.25114138  0.43455075  0.13441778    -0.13100
C505        C  0.21597310  0.44713628  0.13638785     0.05400
C506        C  0.18452151  0.44354276  0.12003444    -0.09100
C507        C  0.19260343  0.42973055  0.09949946     0.06200
C508        C  0.22848463  0.41777989  0.09744820    -0.13500
Br509      Br  0.25020424  0.36945563  0.13537571    -0.05600
Br510      Br  0.40843986  0.41861592  0.08799565     0.00100
Br511      Br  0.21473775  0.47126337  0.16003657     0.00500
Br512      Br  0.23931232  0.39858284  0.07003920    -0.03900
Br513      Br  0.32742946  0.33699503  0.12253300     0.00600
Br514      Br  0.32527381  0.44795015  0.09221355    -0.03200
Br515      Br  0.29177038  0.43771999  0.15810149    -0.04000
Br516      Br  0.15759597  0.42674502  0.07279321    -0.00100
C517        C  0.07129800  0.46803651  0.17648196     0.01300
C518        C  0.04054790  0.48397469  0.18200259     0.04200
C519        C  0.02328088  0.48436450  0.20488092    -0.11900
C520        C  0.03552078  0.46885511  0.22248785     0.23500
C521        C  0.06405973  0.45230159  0.21698730    -0.12500
C522        C  0.07883030  0.45043864  0.19366298     0.04900
C523        C  0.01436450  0.46746350  0.24566833     0.27300
C524        C  0.02640670  0.48072527  0.26514445    -0.13100
C525        C  0.00841678  0.47785837  0.28762013     0.05400
C526        C  0.97703587  0.46195300  0.29089072    -0.09100
C527        C  0.97003517  0.44626893  0.27173807     0.06200
C528        C  0.98559905  0.45053667  0.24893624    -0.13500
Br529      Br  0.08097595  0.43099769  0.24136362    -0.05600
Br530      Br  0.01578328  0.50289118  0.15800477     0.00100
Br531      Br  0.03301550  0.49283126  0.31411780     0.00500
Br532      Br  0.96930285  0.43207380  0.22208624    -0.03900
Br533      Br  0.09837228  0.42030870  0.18489302     0.00600
Br534      Br  0.98081326  0.50525373  0.21208378    -0.03200
Br535      Br  0.06916643  0.50209158  0.26094674    -0.04000
Br536      Br  0.95153237  0.41514856  0.27685018    -0.00100
C537        C  0.86380695  0.66792155  0.46654525     0.01300
C538        C  0.88598745  0.66771695  0.44509884     0.04200
C539        C  0.89945393  0.68843519  0.43495297    -0.11900
C540        C  0.89040241  0.70963126  0.44559709     0.23500
C541        C  0.86912272  0.71016007  0.46698111    -0.12500
C542        C  0.85668702  0.68949789  0.47772487     0.04900
C543        C  0.90278790  0.73135824  0.43386549     0.27300
C544        C  0.94153217  0.73926253  0.43633814    -0.13100
C545        C  0.95431055  0.75857878  0.42336791     0.05400
C546        C  0.92777781  0.77080494  0.40891966    -0.09100
C547        C  0.88862737  0.76339711  0.40713155     0.06200
C548        C  0.87638853  0.74341611  0.41917226    -0.13500
Br549      Br  0.85648510  0.73950508  0.48123405    -0.05600
Br550      Br  0.89684412  0.63985836  0.42789153     0.00100
Br551      Br  0.00803362  0.76847321  0.42564771     0.00500
Br552      Br  0.82377033  0.73210951  0.41507408    -0.03900
Br553      Br  0.83176814  0.69155430  0.50842446     0.00600
Br554      Br  0.92943168  0.68810730  0.40569755    -0.03200
Br555      Br  0.97688106  0.72359536  0.45763259    -0.04000
Br556      Br  0.85219737  0.78002175  0.38728865    -0.00100
C557        C  0.91593469  0.49851825  0.36664808     0.01300
C558        C  0.94267992  0.51633578  0.37216019     0.04200
C559        C  0.93056791  0.53590258  0.38501062    -0.11900
C560        C  0.89290157  0.53680581  0.39515097     0.23500
C561        C  0.86673832  0.51855473  0.39113334    -0.12500
C562        C  0.87769667  0.49984983  0.37651980     0.04900
C563        C  0.88231978  0.55569330  0.41201082     0.27300
C564        C  0.90077906  0.55688657  0.43432330    -0.13100
C565        C  0.89313444  0.57540035  0.44972055     0.05400
C566        C  0.86052582  0.58999820  0.44562463    -0.09100
C567        C  0.84237849  0.58900971  0.42292223     0.06200
C568        C  0.85469791  0.57268512  0.40582879    -0.13500
Br569      Br  0.81603383  0.51892680  0.40647863    -0.05600
Br570      Br  0.99760248  0.51265029  0.36600496     0.00100
Br571      Br  0.93252936  0.58195561  0.47304939     0.00500
Br572      Br  0.83441551  0.57372548  0.37380614    -0.03900
Br573      Br  0.83922631  0.47653035  0.37077367     0.00600
Br574      Br  0.96600654  0.56148269  0.38914124    -0.03200
Br575      Br  0.93581070  0.53259351  0.44434690    -0.04000
Br576      Br  0.80372970  0.61161380  0.41395508    -0.00100
C577        C  0.09595362  0.77263316  0.05821408     0.01300
C578        C  0.11146213  0.77447462  0.03487922     0.04200
C579        C  0.12553046  0.75478525  0.02303300    -0.11900
C580        C  0.12315487  0.73306771  0.03401774     0.23500
C581        C  0.10589081  0.73093540  0.05666315    -0.12500
C582        C  0.09296808  0.75062637  0.06895839     0.04900
C583        C  0.14140375  0.71268307  0.02258142     0.27300
C584        C  0.12133059  0.70026102  0.00491340    -0.13100
C585        C  0.13921002  0.68113603  0.99397166     0.05400
C586        C  0.17665586  0.67374582  0.00141164    -0.09100
C587        C  0.19630513  0.68602333  0.01958197     0.06200
C588        C  0.17900869  0.70565976  0.02972153    -0.13500
Br589      Br  0.10086538  0.70083351  0.07094203    -0.05600
Br590      Br  0.11234007  0.80365607  0.01838048     0.00100
Br591      Br  0.11299123  0.66609488  0.96792060     0.00500
Br592      Br  0.20673120  0.72306486  0.05362581    -0.03900
Br593      Br  0.07410182  0.74708723  0.10121116     0.00600
Br594      Br  0.14889480  0.75748411  0.99183361    -0.03200
Br595      Br  0.06913543  0.70946172  0.99596439    -0.04000
Br596      Br  0.24589776  0.67539649  0.03199158    -0.00100
C597        C  0.19719118  0.59675222  0.02325222     0.01300
C598        C  0.17528053  0.60356577  0.04345979     0.04200
C599        C  0.16009879  0.58690877  0.05920868    -0.11900
C600        C  0.16962906  0.56350576  0.05619624     0.23500
C601        C  0.19408297  0.55683605  0.03721155    -0.12500
C602        C  0.20591875  0.57306095  0.02006119     0.04900
C603        C  0.15249347  0.54560845  0.07210372     0.27300
C604        C  0.16653775  0.54260030  0.09540760    -0.13100
C605        C  0.15127022  0.52500631  0.11004771     0.05400
C606        C  0.12339110  0.50913567  0.10096146    -0.09100
C607        C  0.11032661  0.51206068  0.07714338     0.06200
C608        C  0.12349835  0.53073442  0.06332418    -0.13500
Br609      Br  0.21056421  0.52512938  0.03443549    -0.05600
Br610      Br  0.16574001  0.63560356  0.04997095     0.00100
Br611      Br  0.17131206  0.52250411  0.14198001     0.00500
Br612      Br  0.10197057  0.53591343  0.03194575    -0.03900
Br613      Br  0.22884091  0.56172013  0.99081448     0.00600
Br614      Br  0.12467773  0.59600336  0.08430980    -0.03200
Br615      Br  0.20831095  0.56207711  0.10678022    -0.04000
Br616      Br  0.07513098  0.49075081  0.06214939    -0.00100
C617        C  0.55752859  0.63870958  0.54805743     0.01300
C618        C  0.57275317  0.65261392  0.52963092     0.04200
C619        C  0.60942457  0.64755697  0.51948167    -0.11900
C620        C  0.63097803  0.62834154  0.52738394     0.23500
C621        C  0.61514265  0.61382833  0.54504737    -0.12500
C622        C  0.57842061  0.61891558  0.55530511     0.04900
C623        C  0.67181829  0.62499272  0.51873648     0.27300
C624        C  0.67917033  0.61493394  0.49646490    -0.13100
C625        C  0.71722378  0.61524505  0.48656004     0.05400
C626        C  0.74984837  0.62284309  0.50033648    -0.09100
C627        C  0.74119742  0.63404212  0.52252101     0.06200
C628        C  0.70270183  0.63486645  0.53149034    -0.13500
Br629      Br  0.64508632  0.58780897  0.55612127    -0.05600
Br630      Br  0.54307573  0.67841546  0.51779660     0.00100
Br631      Br  0.72012705  0.61100772  0.45258209     0.00500
Br632      Br  0.69134103  0.65051878  0.56117159    -0.03900
Br633      Br  0.55836928  0.59964853  0.58051108     0.00600
Br634      Br  0.63136285  0.66775477  0.49563261    -0.03200
Br635      Br  0.63597709  0.60169825  0.47907447    -0.04000
Br636      Br  0.78006063  0.65068330  0.54071150    -0.00100
C637        C  0.47245666  0.64417188  0.90111063     0.01300
C638        C  0.46122452  0.65874364  0.91996643     0.04200
C639        C  0.42546247  0.65521772  0.93175670    -0.11900
C640        C  0.40120434  0.63666802  0.92523623     0.23500
C641        C  0.41326269  0.62140759  0.90716907    -0.12500
C642        C  0.44876746  0.62523542  0.89497480     0.04900
C643        C  0.36231674  0.63409326  0.93679923     0.27300
C644        C  0.35954019  0.62457795  0.95969779    -0.13100
C645        C  0.32437009  0.62623574  0.97268007     0.05400
C646        C  0.28919003  0.63337368  0.96117725    -0.09100
C647        C  0.29327948  0.64458865  0.93871056     0.06200
C648        C  0.32939968  0.64460514  0.92657314    -0.13500
Br649      Br  0.38041630  0.59572814  0.89882038    -0.05600
Br650      Br  0.49545077  0.68327946  0.93008713     0.00100
Br651      Br  0.33020535  0.62707475  0.00691870     0.00500
Br652      Br  0.33455524  0.65978770  0.89606711    -0.03900
Br653      Br  0.46364830  0.60543738  0.86896059     0.00600
Br654      Br  0.40897557  0.67635750  0.95631286    -0.03200
Br655      Br  0.40500786  0.61029372  0.97376249    -0.04000
Br656      Br  0.25218425  0.66354969  0.92578034    -0.00100
C657        C  0.49307458  0.66201448  0.66220250     0.01300
C658        C  0.51822975  0.67917369  0.67113262     0.04200
C659        C  0.52801353  0.67948565  0.69547031    -0.11900
C660        C  0.51322394  0.66246252  0.71090801     0.23500
C661        C  0.48850590  0.64513565  0.70196075    -0.12500
C662        C  0.47831629  0.64494502  0.67768492     0.04900
C663        C  0.52386472  0.66278244  0.73654484     0.27300
C664        C  0.55773284  0.65126310  0.74440353    -0.13100
C665        C  0.56822449  0.65182270  0.76862922     0.05400
C666        C  0.54500298  0.66410370  0.78512648    -0.09100
C667        C  0.51096058  0.67556880  0.77720470     0.06200
C668        C  0.50047978  0.67490739  0.75296878    -0.13500
Br669      Br  0.46826618  0.62185376  0.72313379    -0.05600
Br670      Br  0.54090335  0.70158788  0.64986143     0.00100
Br671      Br  0.61544629  0.63653532  0.77890554     0.00500
Br672      Br  0.45406668  0.69060883  0.74207340    -0.03900
Br673      Br  0.44247645  0.62193395  0.66595308     0.00600
Br674      Br  0.56157639  0.70327720  0.70787078    -0.03200
Br675      Br  0.59000367  0.63502173  0.72173909    -0.04000
Br676      Br  0.47738685  0.69118609  0.79965355    -0.00100
C677        C  0.99430558  0.55715896  0.88159288     0.01300
C678        C  0.99957792  0.58128394  0.88188950     0.04200
C679        C  0.02631814  0.59129590  0.89775436    -0.11900
C680        C  0.05175816  0.57722409  0.91110101     0.23500
C681        C  0.04688461  0.55311200  0.91062449    -0.12500
C682        C  0.01658634  0.54331635  0.89705356     0.04900
C683        C  0.08391111  0.58788400  0.92512393     0.27300
C684        C  0.11426916  0.59967491  0.91346732    -0.13100
C685        C  0.14161910  0.61235967  0.92671057     0.05400
C686        C  0.14477433  0.60939754  0.95176352    -0.09100
C687        C  0.11499161  0.59612426  0.96322451     0.06200
C688        C  0.08330185  0.58721609  0.95009180    -0.13500
Br689      Br  0.08320228  0.53333449  0.92722748    -0.05600
Br690      Br  0.97180470  0.60088261  0.85984071     0.00100
Br691      Br  0.16873049  0.63649561  0.91014301     0.00500
Br692      Br  0.03831451  0.57427010  0.96629251    -0.03900
Br693      Br  0.00600097  0.51099731  0.89961813     0.00600
Br694      Br  0.02845220  0.62437186  0.90096815    -0.03200
Br695      Br  0.11864171  0.59839304  0.87915394    -0.04000
Br696      Br  0.11626470  0.58763897  0.99619828    -0.00100
C697        C  0.86884117  0.56809286  0.85225231     0.01300
C698        C  0.86386470  0.58058412  0.87391231     0.04200
C699        C  0.82935226  0.59341791  0.87800472    -0.11900
C700        C  0.79927038  0.59363199  0.86101954     0.23500
C701        C  0.80295514  0.58052053  0.84019726    -0.12500
C702        C  0.83688368  0.56743361  0.83604309     0.04900
C703        C  0.76310318  0.60733868  0.86489625     0.27300
C704        C  0.73018999  0.59713987  0.87560621    -0.13100
C705        C  0.69438017  0.60910390  0.87657286     0.05400
C706        C  0.69071154  0.63104066  0.86571523    -0.09100
C707        C  0.72457205  0.64161859  0.85590821     0.06200
C708        C  0.76063701  0.62985889  0.85589488    -0.13500
Br709      Br  0.76072319  0.58049783  0.81731300    -0.05600
Br710      Br  0.90244645  0.58059042  0.89888010     0.00100
Br711      Br  0.65134445  0.59545510  0.89390222     0.00500
Br712      Br  0.80688910  0.64412605  0.84272502    -0.03900
Br713      Br  0.83592083  0.54637913  0.80950215     0.00600
Br714      Br  0.82278399  0.61111335  0.90686273    -0.03200
Br715      Br  0.73413856  0.56632193  0.88823185    -0.04000
Br716      Br  0.72235006  0.67154014  0.84091176    -0.00100
C717        C  0.03569755  0.55799023  0.59837621     0.01300
C718        C  0.99561821  0.55183590  0.60016449     0.04200
C719        C  0.96744576  0.56344760  0.58653010    -0.11900
C720        C  0.97920310  0.57830023  0.56802537     0.23500
C721        C  0.01936588  0.58314125  0.56492477    -0.12500
C722        C  0.04700342  0.57445995  0.58123919     0.04900
C723        C  0.94918148  0.58821019  0.55174101     0.27300
C724        C  0.92633550  0.57343846  0.53749628    -0.13100
C725        C  0.89451638  0.58227449  0.52459692     0.05400
C726        C  0.89007251  0.60628830  0.52200508    -0.09100
C727        C  0.91366569  0.62118490  0.53551995     0.06200
C728        C  0.94148388  0.61209785  0.55146889    -0.13500
Br729      Br  0.03678383  0.60124341  0.53811576    -0.05600
Br730      Br  0.97856205  0.52637246  0.61985056     0.00100
Br731      Br  0.85757452  0.56127482  0.51027986     0.00500
Br732      Br  0.96726327  0.63221562  0.57379702    -0.03900
Br733      Br  0.09878499  0.58733008  0.58167242     0.00600
Br734      Br  0.91253517  0.55949775  0.59384024    -0.03200
Br735      Br  0.93946324  0.54119648  0.53480105    -0.04000
Br736      Br  0.90660165  0.65393488  0.53303714    -0.00100
C737        C  0.34947138  0.61839366  0.59713279     0.01300
C738        C  0.35210763  0.59420299  0.59485109     0.04200
C739        C  0.31861269  0.58039888  0.59803933    -0.11900
C740        C  0.28261709  0.59051470  0.60443972     0.23500
C741        C  0.27988293  0.61455436  0.60683694    -0.12500
C742        C  0.31301720  0.62848413  0.60301069     0.04900
C743        C  0.24743172  0.57592659  0.60844339     0.27300
C744        C  0.22141832  0.57155508  0.58967187    -0.13100
C745        C  0.18775373  0.55792828  0.59344837     0.05400
C746        C  0.17750933  0.55078901  0.61703520    -0.09100
C747        C  0.20820112  0.55124168  0.63413349     0.06200
C748        C  0.24163841  0.56489974  0.63040643    -0.13500
Br749      Br  0.23026752  0.62831205  0.61510243    -0.05600
Br750      Br  0.40193988  0.57958142  0.58895404     0.00100
Br751      Br  0.16577606  0.54447775  0.56507045     0.00500
Br752      Br  0.27956577  0.56864295  0.65550872    -0.03900
Br753      Br  0.30747121  0.66147713  0.60476348     0.00600
Br754      Br  0.32166780  0.54755614  0.59332813    -0.03200
Br755      Br  0.23301003  0.58391916  0.55846468    -0.04000
Br756      Br  0.20991432  0.52901701  0.65979147    -0.00100
C757        C  0.97441050  0.54076555  0.79430022     0.01300
C758        C  0.00735905  0.55485805  0.78884643     0.04200
C759        C  0.02856610  0.55153107  0.76770212    -0.11900
C760        C  0.01263837  0.53841685  0.74913817     0.23500
C761        C  0.97595726  0.52789407  0.75240006    -0.12500
C762        C  0.95712376  0.52864818  0.77487785     0.04900
C763        C  0.03320912  0.53747463  0.72568336     0.27300
C764        C  0.03508173  0.55724752  0.71125041    -0.13100
C765        C  0.05772393  0.55718813  0.69031068     0.05400
C766        C  0.07356907  0.53624266  0.68131712    -0.09100
C767        C  0.07588784  0.51745796  0.69745018     0.06200
C768        C  0.05487503  0.51787266  0.71914078    -0.13500
Br769      Br  0.95142815  0.51284596  0.72566692    -0.05600
Br770      Br  0.01786561  0.58318987  0.80563310     0.00100
Br771      Br  0.07006331  0.58653794  0.67576055     0.00500
Br772      Br  0.05646297  0.49176507  0.74040820    -0.03900
Br773      Br  0.90593266  0.51490763  0.77730319     0.00600
Br774      Br  0.07969380  0.56531655  0.76414659    -0.03200
Br775      Br  0.00558883  0.58438759  0.71982346    -0.04000
Br776      Br  0.11542070  0.49420259  0.69387724    -0.00100
C777        C  0.17866543  0.40890485  0.51796634     0.01300
C778        C  0.13786641  0.41406736  0.51950377     0.04200
C779        C  0.12281753  0.42641289  0.53896236    -0.11900
C780        C  0.14794645  0.43949796  0.55323230     0.23500
C781        C  0.18858547  0.43722600  0.55004200    -0.12500
C782        C  0.20359488  0.42012633  0.53470564     0.04900
C783        C  0.13150302  0.45625452  0.57070942     0.27300
C784        C  0.10865319  0.47490642  0.56276610    -0.13100
C785        C  0.09131957  0.48990499  0.57931664     0.05400
C786        C  0.10323176  0.48966751  0.60347867    -0.09100
C787        C  0.12759762  0.47131859  0.61119800     0.06200
C788        C  0.13845242  0.45367153  0.59527215    -0.13500
Br789      Br  0.22385831  0.45784282  0.56639693    -0.05600
Br790      Br  0.10161059  0.40952261  0.49380748     0.00100
Br791      Br  0.04907522  0.50919258  0.56848951     0.00500
Br792      Br  0.16329342  0.42602089  0.60704083    -0.03900
Br793      Br  0.25688434  0.41110581  0.54026666     0.00600
Br794      Br  0.06739781  0.42540282  0.54600285    -0.03200
Br795      Br  0.10283654  0.48096421  0.52909168    -0.04000
Br796      Br  0.15124367  0.47105831  0.64217857    -0.00100
C797        C  0.13612052  0.38241828  0.44883524     0.01300
C798        C  0.10099940  0.36969100  0.44711278     0.04200
C799        C  0.06977385  0.37795917  0.43308975    -0.11900
C800        C  0.07396759  0.39849110  0.41999181     0.23500
C801        C  0.10902629  0.41105320  0.42142308    -0.12500
C802        C  0.13917500  0.40370568  0.43658723     0.04900
C803        C  0.04156834  0.40743616  0.40495169     0.27300
C804        C  0.03550342  0.39842519  0.38205976    -0.13100
C805        C  0.00824709  0.40879303  0.36667540     0.05400
C806        C  0.98879797  0.42944301  0.37340426    -0.09100
C807        C  0.99343757  0.43762696  0.39700309     0.06200
C808        C  0.01917920  0.42633488  0.41277035    -0.13500
Br809      Br  0.11584810  0.43839359  0.40225345    -0.05600
Br810      Br  0.09493592  0.34108560  0.46395933     0.00100
Br811      Br  0.99679671  0.39364573  0.33681699     0.00500
Br812      Br  0.02555547  0.43732440  0.44498884    -0.03900
Br813      Br  0.18222501  0.42453229  0.44243698     0.00600
Br814      Br  0.02100462  0.36132834  0.43181664    -0.03200
Br815      Br  0.06633196  0.37254895  0.37132256    -0.04000
Br816      Br  0.96738728  0.46504426  0.40799982    -0.00100
C817        C  0.28144737  0.36866899  0.46292822     0.01300
C818        C  0.28918660  0.36104153  0.43920255     0.04200
C819        C  0.32727189  0.36233208  0.42968624    -0.11900
C820        C  0.35913162  0.36773001  0.44439552     0.23500
C821        C  0.35269087  0.37214941  0.46865573    -0.12500
C822        C  0.31442111  0.37164093  0.47807773     0.04900
C823        C  0.39954104  0.36403941  0.43526195     0.27300
C824        C  0.41719521  0.34227984  0.43807202    -0.13100
C825        C  0.45343426  0.33760167  0.42726361     0.05400
C826        C  0.47162076  0.35427361  0.41278782    -0.09100
C827        C  0.45465469  0.37632354  0.41059408     0.06200
C828        C  0.41896632  0.38130794  0.42218995    -0.13500
Br829      Br  0.39699383  0.37776830  0.48914334    -0.05600
Br830      Br  0.25263057  0.34209303  0.42164920     0.00100
Br831      Br  0.47861171  0.30839497  0.43270344     0.00500
Br832      Br  0.39582751  0.41145799  0.41969246    -0.03900
Br833      Br  0.30933825  0.36965068  0.51216329     0.00600
Br834      Br  0.33651988  0.35507742  0.39654946    -0.03200
Br835      Br  0.39078519  0.31846091  0.45589541    -0.04000
Br836      Br  0.47855783  0.39905956  0.39025515    -0.00100
C837        C  0.85767170  0.40531202  0.94443143     0.01300
C838        C  0.87333677  0.42655429  0.95190648     0.04200
C839        C  0.88651452  0.44263480  0.93498647    -0.11900
C840        C  0.88121510  0.43840290  0.91051600     0.23500
C841        C  0.86117712  0.41845053  0.90317315    -0.12500
C842        C  0.84823733  0.40230389  0.92019603     0.04900
C843        C  0.89197850  0.45648548  0.89294333     0.27300
C844        C  0.86510970  0.47410098  0.88783891    -0.13100
C845        C  0.87605175  0.49260571  0.87314068     0.05400
C846        C  0.91411110  0.49372360  0.86323750    -0.09100
C847        C  0.94002882  0.47496179  0.86691075     0.06200
C848        C  0.92915211  0.45667201  0.88212016    -0.13500
Br849      Br  0.85074731  0.41364628  0.86983821    -0.05600
Br850      Br  0.87173039  0.43512884  0.98510857     0.00100
Br851      Br  0.83738966  0.51554815  0.86592454     0.00500
Br852      Br  0.96545775  0.43211925  0.88894902    -0.03900
Br853      Br  0.81333588  0.37789466  0.91074025     0.00600
Br854      Br  0.91116046  0.47076957  0.94529747    -0.03200
Br855      Br  0.81324574  0.47294961  0.90158545    -0.04000
Br856      Br  0.99089791  0.47409492  0.85186731    -0.00100
C857        C  0.04970443  0.44007294  0.09427809     0.01300
C858        C  0.05670133  0.41680928  0.08853439     0.04200
C859        C  0.03310641  0.40561368  0.07160832    -0.11900
C860        C  0.99966430  0.41669476  0.06247517     0.23500
C861        C  0.99015210  0.43904146  0.07019524    -0.12500
C862        C  0.01478998  0.45061220  0.08623842     0.04900
C863        C  0.97279141  0.40440063  0.04605285     0.27300
C864        C  0.97531477  0.40805702  0.02142771    -0.13100
C865        C  0.94743532  0.39827427  0.00588046     0.05400
C866        C  0.91584725  0.38473792  0.01519791    -0.09100
C867        C  0.91731681  0.37882454  0.03983356     0.06200
C868        C  0.94434121  0.38942514  0.05517835    -0.13500
Br869      Br  0.94250721  0.45344858  0.05926940    -0.05600
Br870      Br  0.09280875  0.39888848  0.10733919     0.00100
Br871      Br  0.95593321  0.40414285  0.97244142     0.00500
Br872      Br  0.94176791  0.38407969  0.08912162    -0.03900
Br873      Br  0.99810553  0.47987537  0.09899500     0.00600
Br874      Br  0.04601844  0.37492233  0.06124394    -0.03200
Br875      Br  0.01718227  0.42725810  0.00938203    -0.04000
Br876      Br  0.88571992  0.35434773  0.05299520    -0.00100
C877        C  0.57758436  0.36033021  0.05822337     0.01300
C878        C  0.60691181  0.37294583  0.07011558     0.04200
C879        C  0.64427495  0.37550647  0.05970052    -0.11900
C880        C  0.65205853  0.36633899  0.03690306     0.23500
C881        C  0.62206741  0.35485156  0.02450550    -0.12500
C882        C  0.58516883  0.35159205  0.03523611     0.04900
C883        C  0.69239615  0.36746890  0.02665311     0.27300
C884        C  0.70637228  0.38781197  0.01616304    -0.13100
C885        C  0.74536974  0.38920716  0.00791112     0.05400
C886        C  0.76953188  0.36915181  0.00688267    -0.09100
C887        C  0.75650822  0.34974798  0.02033464     0.06200
C888        C  0.71800601  0.34876078  0.02946403    -0.13500
Br889      Br  0.63206974  0.34303920  0.99301043    -0.05600
Br890      Br  0.59685491  0.38551328  0.10132199     0.00100
Br891      Br  0.76661091  0.41975085  0.00351676     0.00500
Br892      Br  0.70031210  0.32200636  0.04695386    -0.03900
Br893      Br  0.54470884  0.33528209  0.01829938     0.00600
Br894      Br  0.68568079  0.39032303  0.07724416    -0.03200
Br895      Br  0.67191196  0.41403642  0.01362731    -0.04000
Br896      Br  0.79192564  0.32620931  0.03103536    -0.00100
C897        C  0.27110337  0.12847138  0.96048589     0.01300
C898        C  0.25728646  0.14910071  0.94955260     0.04200
C899        C  0.21910461  0.15027441  0.94016954    -0.11900
C900        C  0.19515790  0.13067495  0.93998628     0.23500
C901        C  0.21034197  0.10950065  0.94763692    -0.12500
C902        C  0.24888251  0.10809325  0.95632831     0.04900
C903        C  0.15525707  0.13197907  0.92962671     0.27300
C904        C  0.12377682  0.14002861  0.94352294    -0.13100
C905        C  0.08637237  0.14245750  0.93336319     0.05400
C906        C  0.08030491  0.13678401  0.90920881    -0.09100
C907        C  0.11172176  0.12822583  0.89546323     0.06200
C908        C  0.14913054  0.12593812  0.90562248    -0.13500
Br909      Br  0.17806746  0.08229524  0.94588670    -0.05600
Br910      Br  0.29152341  0.17441055  0.94204298     0.00100
Br911      Br  0.04432251  0.15520050  0.95218713     0.00500
Br912      Br  0.19242769  0.11518023  0.88650304    -0.03900
Br913      Br  0.27214879  0.07778828  0.95799016     0.00600
Br914      Br  0.19954167  0.17865114  0.92662942    -0.03200
Br915      Br  0.13249605  0.14846969  0.97630063    -0.04000
Br916      Br  0.10345087  0.11913351  0.86280215    -0.00100
C917        C  0.93480753  0.21818050  0.91196787     0.01300
C918        C  0.89597666  0.22628481  0.91076817     0.04200
C919        C  0.88625959  0.24785410  0.92046466    -0.11900
C920        C  0.91519845  0.26122681  0.93167981     0.23500
C921        C  0.95397722  0.25307928  0.93299796    -0.12500
C922        C  0.96376907  0.23154647  0.92322843     0.04900
C923        C  0.90460045  0.28363389  0.94257866     0.27300
C924        C  0.90537738  0.30389202  0.92892794    -0.13100
C925        C  0.89431292  0.32507628  0.93920081     0.05400
C926        C  0.88066291  0.32593563  0.96309319    -0.09100
C927        C  0.88424997  0.30584419  0.97717307     0.06200
C928        C  0.89496514  0.28472320  0.96684769    -0.13500
Br929      Br  0.99373998  0.27176081  0.94774247    -0.05600
Br930      Br  0.85572927  0.20735312  0.89681418     0.00100
Br931      Br  0.90113187  0.35232884  0.92034504     0.00500
Br932      Br  0.89630804  0.25704195  0.98587824    -0.03900
Br933      Br  0.01724687  0.22087236  0.92433186     0.00600
Br934      Br  0.83341451  0.25931306  0.91821180    -0.03200
Br935      Br  0.92135252  0.30228037  0.89594456    -0.04000
Br936      Br  0.88053593  0.30758230  0.01119597    -0.00100
C937        C  0.96319749  0.15014721  0.56190137     0.01300
C938        C  0.94558058  0.12823461  0.56334098     0.04200
C939        C  0.90944122  0.12415760  0.55205877    -0.11900
C940        C  0.89088078  0.14190915  0.53925444     0.23500
C941        C  0.90891064  0.16363326  0.53734360    -0.12500
C942        C  0.94491229  0.16775974  0.54865322     0.04900
C943        C  0.85185475  0.13813265  0.52827341     0.27300
C944        C  0.84899339  0.13052958  0.50464216    -0.13100
C945        C  0.81214510  0.12894241  0.49347362     0.05400
C946        C  0.77706083  0.13324398  0.50646877    -0.09100
C947        C  0.78127471  0.14417932  0.52913671     0.06200
C948        C  0.81799100  0.14508392  0.54043565    -0.13500
Br949      Br  0.88382827  0.18783344  0.51939816    -0.05600
Br950      Br  0.96958115  0.10421044  0.58201102     0.00100
Br951      Br  0.81214757  0.12590797  0.45940639     0.00500
Br952      Br  0.82241123  0.15644646  0.57267043    -0.03900
Br953      Br  0.96965505  0.19745302  0.54542441     0.00600
Br954      Br  0.88459562  0.09449296  0.55458385    -0.03200
Br955      Br  0.89627994  0.12294985  0.48743663    -0.04000
Br956      Br  0.74018994  0.16261557  0.54327607    -0.00100
C957        C  0.03223474  0.16356225  0.67698629     0.01300
C958        C  0.01016349  0.18174858  0.68690969     0.04200
C959        C  0.00207878  0.18202225  0.71141674    -0.11900
C960        C  0.01526889  0.16393262  0.72599243     0.23500
C961        C  0.03610633  0.14536902  0.71607542    -0.12500
C962        C  0.04482100  0.14518904  0.69161798     0.04900
C963        C  0.00676845  0.16427656  0.75177397     0.27300
C964        C  0.03550211  0.17176805  0.76794505    -0.13100
C965        C  0.02789076  0.17120157  0.79253602     0.05400
C966        C  0.99113152  0.16369136  0.80088073    -0.09100
C967        C  0.96177730  0.15731824  0.78455784     0.06200
C968        C  0.96993864  0.15703241  0.76007409    -0.13500
Br969      Br  0.05287853  0.12029834  0.73622464    -0.05600
Br970      Br  0.98906082  0.20579658  0.66691193     0.00100
Br971      Br  0.06857136  0.17953171  0.81469521     0.00500
Br972      Br  0.93107228  0.14622612  0.73783802    -0.03900
Br973      Br  0.07574917  0.12025499  0.67877521     0.00600
Br974      Br  0.97299911  0.20722085  0.72518390    -0.03200
Br975      Br  0.08550289  0.18234033  0.75629824    -0.04000
Br976      Br  0.90958436  0.15038740  0.79551247    -0.00100
C977        C  0.10701541  0.23008970  0.57112635     0.01300
C978        C  0.14598977  0.23168402  0.56298392     0.04200
C979        C  0.15922253  0.25201539  0.55209835    -0.11900
C980        C  0.13321441  0.27051052  0.54851502     0.23500
C981        C  0.09448926  0.26912261  0.55701890    -0.12500
C982        C  0.08165181  0.24914171  0.56882744     0.04900
C983        C  0.14651398  0.29105383  0.53512104     0.27300
C984        C  0.15698121  0.31129683  0.54728434    -0.13100
C985        C  0.17045188  0.33053057  0.53445859     0.05400
C986        C  0.17581533  0.32907751  0.50958754    -0.09100
C987        C  0.16703902  0.30838501  0.49761507     0.06200
C988        C  0.15060907  0.28985594  0.51019921    -0.13500
Br989      Br  0.05875112  0.29432575  0.55170334    -0.05600
Br990      Br  0.18189724  0.20638352  0.56755324     0.00100
Br991      Br  0.18374149  0.35826513  0.55133843     0.00500
Br992      Br  0.13336358  0.26277865  0.49335187    -0.03900
Br993      Br  0.02885088  0.24769350  0.58098510     0.00600
Br994      Br  0.21312270  0.25468630  0.54211704    -0.03200
Br995      Br  0.15424708  0.31226551  0.58159963    -0.04000
Br996      Br  0.17871640  0.30491654  0.46415422    -0.00100
C997        C  0.41766447  0.11411620  0.95516545     0.01300
C998        C  0.42131844  0.12245249  0.93127046     0.04200
C999        C  0.45159523  0.11459052  0.91633794    -0.11900
C1000       C  0.47990882  0.09935702  0.92502760     0.23500
C1001       C  0.47963588  0.09302899  0.94911114    -0.12500
C1002       C  0.44896626  0.10026777  0.96427346     0.04900
C1003       C  0.50699019  0.08788073  0.90809073     0.27300
C1004       C  0.49408831  0.06813594  0.89606207    -0.13100
C1005       C  0.51820045  0.05753835  0.87906286     0.05400
C1006       C  0.55547543  0.06685103  0.87354413    -0.09100
C1007       C  0.56927599  0.08584962  0.88677950     0.06200
C1008       C  0.54478859  0.09655226  0.90374894    -0.13500
Br1009     Br  0.52108777  0.07329915  0.96073742    -0.05600
Br1010     Br  0.38704119  0.14564334  0.91801769     0.00100
Br1011     Br  0.50097393  0.02886387  0.86538675     0.00500
Br1012     Br  0.56244689  0.12330923  0.92089445    -0.03900
Br1013     Br  0.45213099  0.08969811  0.99678820     0.00600
Br1014     Br  0.45380697  0.12380177  0.88323342    -0.03200
Br1015     Br  0.44289705  0.05563319  0.90302058    -0.04000
Br1016     Br  0.62160338  0.09716600  0.88226346    -0.00100
C1017       C  0.68458189  0.05969158  0.83954047     0.01300
C1018       C  0.71531302  0.04604726  0.84877080     0.04200
C1019       C  0.75198844  0.05585926  0.85371502    -0.11900
C1020       C  0.75853782  0.07929141  0.84916087     0.23500
C1021       C  0.72877518  0.09280395  0.83900729    -0.12500
C1022       C  0.69182732  0.08312338  0.83438214     0.04900
C1023       C  0.79617223  0.08993674  0.85613950     0.27300
C1024       C  0.79950031  0.10079136  0.87844102    -0.13100
C1025       C  0.83471734  0.11159015  0.88490035     0.05400
C1026       C  0.86727988  0.11078287  0.86944287    -0.09100
C1027       C  0.86448407  0.09868723  0.84766816     0.06200
C1028       C  0.82863679  0.08890354  0.84075274    -0.13500
Br1029     Br  0.73873443  0.12478009  0.83196389    -0.05600
Br1030     Br  0.70853378  0.01376002  0.85426747     0.00100
Br1031     Br  0.83850324  0.12698639  0.91522419     0.00500
Br1032     Br  0.82326236  0.07487955  0.80978863    -0.03900
Br1033     Br  0.65100783  0.10266054  0.82230899     0.00600
Br1034     Br  0.79341413  0.03740227  0.86727217    -0.03200
Br1035     Br  0.75541485  0.10095849  0.89996718    -0.04000
Br1036     Br  0.90897601  0.09612750  0.82663421    -0.00100
C1037       C  0.48458603  0.06649203  0.59822804     0.01300
C1038       C  0.49092533  0.05791735  0.57492900     0.04200
C1039       C  0.51957828  0.06796435  0.56012182    -0.11900
C1040       C  0.54206074  0.08659864  0.56832101     0.23500
C1041       C  0.53433977  0.09609787  0.59084617    -0.12500
C1042       C  0.50507847  0.08652964  0.60548755     0.04900
C1043       C  0.57455006  0.09571930  0.55339540     0.27300
C1044       C  0.61189478  0.08571479  0.55492764    -0.13100
C1045       C  0.64215649  0.09298030  0.53964485     0.05400
C1046       C  0.63556218  0.11105556  0.52293383    -0.09100
C1047       C  0.59800771  0.12139087  0.52199617     0.06200
C1048       C  0.56771876  0.11362676  0.53708045    -0.13500
Br1049     Br  0.56520271  0.12171101  0.60193356    -0.05600
Br1050     Br  0.46215855  0.03200441  0.56291103     0.00100
Br1051     Br  0.69079127  0.07575576  0.54034623     0.00500
Br1052     Br  0.51639783  0.12744517  0.53561686    -0.03900
Br1053     Br  0.49211938  0.10184477  0.63503174     0.00600
Br1054     Br  0.52958335  0.05566378  0.52874362    -0.03200
Br1055     Br  0.62113286  0.06157059  0.57793238    -0.04000
Br1056     Br  0.58730726  0.14673175  0.50087762    -0.00100
C1057       C  0.17596090  0.12730838  0.61301805     0.01300
C1058       C  0.19019381  0.11104055  0.59644693     0.04200
C1059       C  0.22543783  0.09926216  0.60092691    -0.11900
C1060       C  0.24732257  0.10420553  0.62152028     0.23500
C1061       C  0.23315454  0.12026880  0.63816116    -0.12500
C1062       C  0.19730123  0.13152530  0.63416473     0.04900
C1063       C  0.28548496  0.09262342  0.62552245     0.27300
C1064       C  0.28761866  0.07313711  0.64026515    -0.13100
C1065       C  0.32349536  0.06163166  0.64337989     0.05400
C1066       C  0.35784072  0.06959718  0.63173015    -0.09100
C1067       C  0.35526401  0.08915254  0.61679635     0.06200
C1068       C  0.31930859  0.10069429  0.61392359    -0.13500
Br1069     Br  0.26322993  0.12686632  0.66640980    -0.05600
Br1070     Br  0.16311544  0.10577681  0.56682896     0.00100
Br1071     Br  0.32325841  0.03303385  0.66080070     0.00500
Br1072     Br  0.31590338  0.12761911  0.59386639    -0.03900
Br1073     Br  0.17690334  0.15179534  0.65849289     0.00600
Br1074     Br  0.24411084  0.07630242  0.57883788    -0.03200
Br1075     Br  0.24060463  0.06166353  0.65530233    -0.04000
Br1076     Br  0.40042347  0.10054211  0.60003675    -0.00100
C1077       C  0.56487541  0.03352251  0.79150310     0.01300
C1078       C  0.56834190  0.05103834  0.77375658     0.04200
C1079       C  0.55244721  0.04804518  0.75083289    -0.11900
C1080       C  0.53053302  0.02837290  0.74547501     0.23500
C1081       C  0.52434687  0.01166271  0.76312459    -0.12500
C1082       C  0.53857409  0.01503484  0.78641098     0.04900
C1083       C  0.50853729  0.02722558  0.72266349     0.27300
C1084       C  0.46858932  0.03290300  0.72231438    -0.13100
C1085       C  0.44731370  0.03157440  0.70099022     0.05400
C1086       C  0.46694938  0.02873440  0.67886185    -0.09100
C1087       C  0.50631905  0.02048400  0.67980505     0.06200
C1088       C  0.52682605  0.01986655  0.70160826    -0.13500
Br1089     Br  0.49417482  0.98453776  0.75542782    -0.05600
Br1090     Br  0.58788110  0.08126570  0.78106040     0.00100
Br1091     Br  0.39194198  0.02657537  0.70415233     0.00500
Br1092     Br  0.58038260  0.00932848  0.70288286    -0.03900
Br1093     Br  0.51096256  0.99831762  0.81099117     0.00600
Br1094     Br  0.55921451  0.07142907  0.72662577    -0.03200
Br1095     Br  0.44273226  0.04275949  0.75121133    -0.04000
Br1096     Br  0.53258562  0.00836041  0.65209584    -0.00100
C1097       C  0.35970828  0.83246810  0.50175377     0.01300
C1098       C  0.37736092  0.83081856  0.52456484     0.04200
C1099       C  0.38958117  0.80930184  0.53346748    -0.11900
C1100       C  0.38496115  0.78928049  0.51972788     0.23500
C1101       C  0.37005556  0.79093196  0.49649266    -0.12500
C1102       C  0.35818304  0.81240807  0.48734267     0.04900
C1103       C  0.39581995  0.76651900  0.52991725     0.27300
C1104       C  0.43531910  0.75964640  0.53061336    -0.13100
C1105       C  0.44606710  0.73926179  0.54248460     0.05400
C1106       C  0.41714148  0.72498613  0.55270337    -0.09100
C1107       C  0.37740570  0.73146369  0.55117894     0.06200
C1108       C  0.36684767  0.75231945  0.54008289    -0.13500
Br1109     Br  0.36578822  0.76351285  0.47730263    -0.05600
Br1110     Br  0.38526634  0.85731580  0.54447564     0.00100
Br1111     Br  0.50057026  0.73091105  0.54447187     0.00500
Br1112     Br  0.31273857  0.76181577  0.53918303    -0.03900
Br1113     Br  0.34283894  0.81409138  0.45431094     0.00600
Br1114     Br  0.41199708  0.80693449  0.56497147    -0.03200
Br1115     Br  0.47457537  0.77821376  0.51507588    -0.04000
Br1116     Br  0.33752782  0.71257542  0.56558404    -0.00100
C1117       C  0.34466944  0.91399356  0.52037380     0.01300
C1118       C  0.33559096  0.91171762  0.54473559     0.04200
C1119       C  0.34820055  0.92853423  0.56095667    -0.11900
C1120       C  0.36703379  0.94850539  0.55258997     0.23500
C1121       C  0.37178129  0.95206651  0.52797169    -0.12500
C1122       C  0.35972725  0.93506339  0.51183088     0.04900
C1123       C  0.37976434  0.96644823  0.56954925     0.27300
C1124       C  0.35389102  0.98411981  0.57603193    -0.13100
C1125       C  0.36625538  0.00168653  0.59149419     0.05400
C1126       C  0.40444625  0.00128230  0.60138398    -0.09100
C1127       C  0.43043106  0.98347364  0.59432363     0.06200
C1128       C  0.41809629  0.96625765  0.57842030    -0.13500
Br1129     Br  0.39428907  0.98043920  0.51647796    -0.05600
Br1130     Br  0.30133007  0.88741309  0.55539644     0.00100
Br1131     Br  0.32972891  0.02585793  0.59825351     0.00500
Br1132     Br  0.45383828  0.94250383  0.56806374    -0.03900
Br1133     Br  0.35977725  0.94187335  0.47816271     0.00600
Br1134     Br  0.33935264  0.92445260  0.59460134    -0.03200
Br1135     Br  0.30128783  0.98410466  0.56335795    -0.04000
Br1136     Br  0.48430477  0.98340709  0.60422352    -0.00100
C1137       C  0.40001405  0.88853578  0.45075125     0.01300
C1138       C  0.43487519  0.89859998  0.46039828     0.04200
C1139       C  0.46684021  0.90367026  0.44534104    -0.11900
C1140       C  0.46226042  0.90321465  0.42050432     0.23500
C1141       C  0.42834334  0.89327894  0.41083525    -0.12500
C1142       C  0.40006502  0.88349752  0.42594115     0.04900
C1143       C  0.49243146  0.91392922  0.40480778     0.27300
C1144       C  0.49962753  0.93781844  0.40616441    -0.13100
C1145       C  0.52891825  0.94785947  0.39194446     0.05400
C1146       C  0.54724426  0.93493600  0.37387540    -0.09100
C1147       C  0.53823691  0.91130449  0.37155953     0.06200
C1148       C  0.51372420  0.90052226  0.38834506    -0.13500
Br1149     Br  0.41911256  0.89395572  0.37690829    -0.05600
Br1150     Br  0.44131924  0.90811756  0.49310052     0.00100
Br1151     Br  0.54263783  0.97950907  0.39696681     0.00500
Br1152     Br  0.51035130  0.86738334  0.38923629    -0.03900
Br1153     Br  0.36607982  0.86048444  0.41223869     0.00600
Br1154     Br  0.51734739  0.91173941  0.45853160    -0.03200
Br1155     Br  0.46804383  0.95717425  0.42658995    -0.04000
Br1156     Br  0.55799321  0.89367085  0.34496652    -0.00100
C1157       C  0.06905125  0.86075888  0.40457221     0.01300
C1158       C  0.10537259  0.85630521  0.39348674     0.04200
C1159       C  0.14046211  0.86195899  0.40508808    -0.11900
C1160       C  0.13946973  0.87275763  0.42751458     0.23500
C1161       C  0.10320522  0.87891185  0.43774712    -0.12500
C1162       C  0.06800502  0.87265078  0.42646355     0.04900
C1163       C  0.17647882  0.87635796  0.44083655     0.27300
C1164       C  0.18558745  0.86206842  0.46024645    -0.13100
C1165       C  0.22064350  0.86527290  0.47276492     0.05400
C1166       C  0.25038151  0.87976062  0.46330343    -0.09100
C1167       C  0.23864770  0.89639868  0.44607870     0.06200
C1168       C  0.20195547  0.89443194  0.43475768    -0.13500
Br1169     Br  0.10197555  0.89541149  0.46755561    -0.05600
Br1170     Br  0.10717620  0.84305017  0.36197278     0.00100
Br1171     Br  0.22261500  0.85391095  0.50517290     0.00500
Br1172     Br  0.18583589  0.91666929  0.41115871    -0.03900
Br1173     Br  0.01869964  0.87896857  0.44191682     0.00600
Br1174     Br  0.19001089  0.85417615  0.39061254    -0.03200
Br1175     Br  0.15023262  0.83779110  0.46968370    -0.04000
Br1176     Br  0.26874788  0.92398179  0.44025984    -0.00100
C1177       C  0.65303508  0.82934901  0.96242616     0.01300
C1178       C  0.64233992  0.80917073  0.97486102     0.04200
C1179       C  0.62968677  0.78964516  0.96228886    -0.11900
C1180       C  0.62901427  0.78987739  0.93722636     0.23500
C1181       C  0.63927104  0.81004626  0.92478601    -0.12500
C1182       C  0.65082552  0.82984308  0.93736454     0.04900
C1183       C  0.61983201  0.76848448  0.92396247     0.27300
C1184       C  0.64933733  0.75190426  0.92021989    -0.13100
C1185       C  0.64077240  0.73145854  0.90790172     0.05400
C1186       C  0.60279193  0.72769120  0.89898128    -0.09100
C1187       C  0.57334009  0.74430957  0.90264284     0.06200
C1188       C  0.58184636  0.76467906  0.91512532    -0.13500
Br1189     Br  0.63930832  0.81003674  0.89043202    -0.05600
Br1190     Br  0.64619610  0.80788773  0.00914389     0.00100
Br1191     Br  0.68145323  0.70899220  0.90253018     0.00500
Br1192     Br  0.54161189  0.78744771  0.92015718    -0.03900
Br1193     Br  0.66628296  0.85699435  0.92007052     0.00600
Br1194     Br  0.61427311  0.76224194  0.97929246    -0.03200
Br1195     Br  0.70170348  0.75753671  0.93162009    -0.04000
Br1196     Br  0.52091764  0.73870452  0.89139157    -0.00100
C1197       C  0.66939661  0.90987852  0.95395735     0.01300
C1198       C  0.63100156  0.91955566  0.95266724     0.04200
C1199       C  0.62121096  0.93519202  0.93447164    -0.11900
C1200       C  0.65062297  0.94497847  0.92029907     0.23500
C1201       C  0.68934255  0.93745024  0.92285493    -0.12500
C1202       C  0.69788754  0.91855788  0.93766175     0.04900
C1203       C  0.64065532  0.96348127  0.90305458     0.27300
C1204       C  0.64144291  0.95919277  0.87844082    -0.13100
C1205       C  0.63255995  0.97690540  0.86215393     0.05400
C1206       C  0.61781116  0.99848733  0.87044407    -0.09100
C1207       C  0.61491498  0.00186983  0.89552331     0.06200
C1208       C  0.62901375  0.98515152  0.91145290    -0.13500
Br1209     Br  0.73080922  0.95331446  0.90607903    -0.05600
Br1210     Br  0.59147480  0.91508843  0.97659509     0.00100
Br1211     Br  0.64584453  0.97130046  0.82911401     0.00500
Br1212     Br  0.63260077  0.99184902  0.94516592    -0.03900
Br1213     Br  0.74701054  0.90357299  0.93187923     0.00600
Br1214     Br  0.56711445  0.94355865  0.92890825    -0.03200
Br1215     Br  0.65481006  0.92876548  0.86710283    -0.04000
Br1216     Br  0.58823263  0.02770642  0.90956022    -0.00100
C1217       C  0.47231565  0.93287211  0.09933125     0.01300
C1218       C  0.49062888  0.91152476  0.10449918     0.04200
C1219       C  0.51747051  0.90166987  0.08847492    -0.11900
C1220       C  0.52380361  0.91181155  0.06613816     0.23500
C1221       C  0.50242649  0.93149280  0.05960182    -0.12500
C1222       C  0.47742450  0.94232042  0.07620359     0.04900
C1223       C  0.55496725  0.90272139  0.05023857     0.27300
C1224       C  0.59190334  0.91329689  0.05022605    -0.13100
C1225       C  0.62172290  0.90510052  0.03523449     0.05400
C1226       C  0.61596526  0.88487729  0.02149046    -0.09100
C1227       C  0.57842727  0.87459881  0.02118638     0.06200
C1228       C  0.54794290  0.88373879  0.03529740    -0.13500
Br1229     Br  0.50862803  0.94380513  0.02785387    -0.05600
Br1230     Br  0.47648698  0.89402921  0.13219392     0.00100
Br1231     Br  0.66853292  0.92355059  0.03184111     0.00500
Br1232     Br  0.49629550  0.87041936  0.03431149    -0.03900
Br1233     Br  0.45233023  0.97041000  0.06663502     0.00600
Br1234     Br  0.54680472  0.87456142  0.09736096    -0.03200
Br1235     Br  0.60169386  0.93903033  0.07114824    -0.04000
Br1236     Br  0.56782321  0.84830703  0.00140869    -0.00100
C1237       C  0.95017750  0.85407401  0.06187753     0.01300
C1238       C  0.93067528  0.87527905  0.06511378     0.04200
C1239       C  0.89321897  0.87869925  0.05519373    -0.11900
C1240       C  0.87530776  0.86099652  0.04205376     0.23500
C1241       C  0.89528518  0.84012725  0.03818685    -0.12500
C1242       C  0.93254640  0.83666757  0.04802790     0.04900
C1243       C  0.83538537  0.86392140  0.03216734     0.27300
C1244       C  0.80267937  0.85669868  0.04542552    -0.13100
C1245       C  0.76531046  0.85604514  0.03481658     0.05400
C1246       C  0.75986334  0.86458983  0.01124206    -0.09100
C1247       C  0.79401730  0.86790350  0.99727864     0.06200
C1248       C  0.83092674  0.86952784  0.00804292    -0.13500
Br1249     Br  0.87122976  0.81610596  0.01949287    -0.05600
Br1250     Br  0.95393516  0.89909899  0.08427202     0.00100
Br1251     Br  0.72587450  0.83763560  0.05062312     0.00500
Br1252     Br  0.87603128  0.87837119  0.98942610    -0.03900
Br1253     Br  0.95973110  0.80807531  0.04189431     0.00600
Br1254     Br  0.86586051  0.90737360  0.05981086    -0.03200
Br1255     Br  0.80980021  0.84657197  0.07790001    -0.04000
Br1256     Br  0.79297820  0.86335277  0.96340471    -0.00100
loop_ 
_geom_bond_atom_site_label_1 
_geom_bond_atom_site_label_2 
_geom_bond_distance 
_geom_bond_site_symmetry_2 
_ccdc_geom_bond_type 
C1            C2   1.554   1_554  S
C1            C7   1.523   1_554  S
C1            C5   1.536       .  S
C1         C1246   1.546       .  S
C2            H9   1.084       .  S
C2            C3   1.380       .  D
C3            C4   1.549       .  S
C3         C1197   1.522       .  S
C4            C8   1.542       .  S
C4            C6   1.550   1_556  S
C4           H10   1.105       .  S
C5           H11   1.084       .  S
C5            C6   1.365       .  D
C6         C1226   1.498       .  S
C7           H12   1.087       .  S
C7            C8   1.357       .  D
C8         C1177   1.484       .  S
C13          C14   1.517       .  S
C13          C19   1.544       .  S
C13          C17   1.550       .  S
C13        C1166   1.544       .  S
C14          H21   1.087       .  S
C14          C15   1.354       .  D
C15          C16   1.557       .  S
C15        C1117   1.479       .  S
C16          C20   1.538       .  S
C16          C18   1.543       .  S
C16          H22   1.094       .  S
C17          H23   1.080       .  S
C17          C18   1.381       .  D
C18        C1137   1.522       .  S
C19          H24   1.084       .  S
C19          C20   1.365       .  D
C20        C1097   1.506       .  S
C25          C26   1.548       .  S
C25          C31   1.537       .  S
C25          C29   1.539       .  S
C25        C1086   1.556       .  S
C26          H33   1.082       .  S
C26          C27   1.368       .  D
C27          C28   1.544       .  S
C27        C1066   1.499       .  S
C28          C32   1.548       .  S
C28          C30   1.546       .  S
C28          H34   1.109       .  S
C29          H35   1.086   1_545  S
C29          C30   1.372       .  D
C30        C1126   1.502       .  S
C31          H36   1.085       .  S
C31          C32   1.365       .  D
C32        C1037   1.502       .  S
C37          C38   1.548       .  S
C37          C43   1.529       .  S
C37          C41   1.551       .  S
C37        C1077   1.558       .  S
C38          H45   1.085       .  S
C38          C39   1.367       .  D
C39          C40   1.540       .  S
C39        C1017   1.494       .  S
C40          C44   1.548       .  S
C40          C42   1.543       .  S
C40          H46   1.107       .  S
C41          H47   1.075   1_545  S
C41          C42   1.374       .  D
C42        C1206   1.514   1_545  S
C43          H48   1.087       .  S
C43          C44   1.364       .  D
C44        C1006   1.495       .  S
O49          C52   1.264       .  A
O49         Cd54   2.435       .  S
C50          O59   1.267       .  A
C50          O55   1.265       .  A
C50         C977   1.475       .  S
O51          C57   1.268       .  A
O51         Cd54   2.487       .  S
C52          O60   1.264       .  A
C52         C957   1.474       .  S
C53          O58   1.268   1_655  A
C53          O56   1.264   1_655  A
C53         C937   1.479       .  S
Cd54         O61   2.439       .  S
Cd54         O60   2.453       .  S
Cd54         O59   2.449       .  S
Cd54         O55   2.451       .  S
Cd54         O58   2.491       .  S
Cd54         O56   2.447       .  S
C57          O61   1.262       .  A
C57        C1057   1.483       .  S
O62          C65   1.264       .  A
O62         Cd67   2.447       .  S
C63          O72   1.263       .  A
C63          O68   1.265       .  A
C63         C966   1.471       .  S
O64          C70   1.267       .  A
O64         Cd67   2.486   1_455  S
C65          O73   1.266       .  A
C65         C917   1.473       .  S
C66          O71   1.266       .  A
C66          O69   1.264       .  A
C66        C1026   1.479       .  S
Cd67         O74   2.448   1_655  S
Cd67         O73   2.468       .  S
Cd67         O72   2.436       .  S
Cd67         O68   2.467       .  S
Cd67         O71   2.479       .  S
Cd67         O69   2.449       .  S
C70          O74   1.263       .  A
C70         C906   1.479       .  S
C75          C76   1.539   1_556  S
C75          C81   1.550       .  S
C75          C79   1.538       .  S
C75         C886   1.562   1_556  S
C76          H83   1.085       .  S
C76          C77   1.377       .  D
C77          C78   1.546   1_554  S
C77         C866   1.524       .  S
C78          C82   1.539       .  S
C78          C80   1.555       .  S
C78          H84   1.096       .  S
C79          H85   1.084       .  S
C79          C80   1.360       .  D
C80         C837   1.488       .  S
C81          H86   1.084       .  S
C81          C82   1.373       .  D
C82         C926   1.508       .  S
C87          C88   1.537       .  S
C87          C93   1.527       .  S
C87          C91   1.557       .  S
C87         C817   1.551       .  S
C88          H95   1.083       .  S
C88          C89   1.363       .  D
C89          C90   1.547       .  S
C89         C797   1.495       .  S
C90          C94   1.537       .  S
C90          C92   1.548       .  S
C90          H96   1.105       .  S
C91          H97   1.082       .  S
C91          C92   1.385       .  D
C92         C777   1.526       .  S
C93          H98   1.087       .  S
C93          C94   1.356       .  D
C94         C986   1.482       .  S
C99         C100   1.524       .  S
C99         C105   1.536       .  S
C99         C103   1.561       .  S
C99         C766   1.555       .  S
C100        H107   1.086       .  S
C100        C101   1.351       .  D
C101        C102   1.550       .  S
C101        C717   1.496       .  S
C102        C106   1.553       .  S
C102        C104   1.535       .  S
C102        H108   1.085       .  S
C103        H109   1.082       .  S
C103        C104   1.377       .  D
C104        C786   1.507       .  S
C105        H110   1.083       .  S
C105        C106   1.380       .  D
C106        C746   1.533       .  S
C111        C112   1.538       .  S
C111        C117   1.540       .  S
C111        C115   1.547       .  S
C111        C757   1.557       .  S
C112        H119   1.083   1_655  S
C112        C113   1.358       .  D
C113        C114   1.544       .  S
C113        C677   1.486       .  S
C114        C118   1.547       .  S
C114        C116   1.545       .  S
C114        H120   1.107       .  S
C115        H121   1.084       .  S
C115        C116   1.371       .  D
C116        C846   1.500       .  S
C117        H122   1.086       .  S
C117        C118   1.375       .  D
C118        C697   1.513       .  S
O123        C126   1.269       .  A
O123       Cd128   2.461       .  S
C124        O133   1.263       .  A
C124        O129   1.265       .  A
C124        C666   1.482       .  S
O125        C131   1.266       .  A
O125       Cd128   2.474       .  S
C126        O134   1.267       .  A
C126       C1186   1.474       .  S
C127        O132   1.265       .  A
C127        O130   1.262       .  A
C127        C637   1.475       .  S
Cd128       O135   2.464       .  S
Cd128       O134   2.453       .  S
Cd128       O133   2.471       .  S
Cd128       O129   2.490       .  S
Cd128       O132   2.501       .  S
Cd128       O130   2.441       .  S
C131        O135   1.262       .  A
C131        C706   1.493       .  S
O136        C139   1.265       .  A
O136       Cd141   2.474       .  S
C137        O146   1.265       .  A
C137        O142   1.264       .  A
C137       C1106   1.483       .  S
O138        C144   1.265       .  A
O138       Cd141   2.503       .  S
C139        O147   1.265       .  A
C139        C657   1.478       .  S
C140        O145   1.267       .  A
C140        O143   1.265       .  A
C140        C737   1.488       .  S
Cd141       O148   2.466       .  S
Cd141       O147   2.466       .  S
Cd141       O146   2.493       .  S
Cd141       O142   2.476       .  S
Cd141       O145   2.486       .  S
Cd141       O143   2.469       .  S
C144        O148   1.263       .  A
C144        C617   1.484       .  S
C149        C150   1.543       .  S
C149        C155   1.528       .  S
C149        C153   1.550       .  S
C149        C646   1.553       .  S
C150        H157   1.079   1_556  S
C150        C151   1.365   1_556  D
C151        C152   1.545   1_554  S
C151        C597   1.497       .  S
C152        C156   1.540       .  S
C152        C154   1.550       .  S
C152        H158   1.105       .  S
C153        H159   1.085       .  S
C153        C154   1.380       .  D
C154        C686   1.521       .  S
C155        H160   1.086       .  S
C155        C156   1.359       .  D
C156        C586   1.490   1_556  S
C161        C162   1.554       .  S
C161        C167   1.536       .  S
C161        C165   1.535       .  S
C161        C626   1.559       .  S
C162        H169   1.081       .  S
C162        C163   1.379       .  D
C163        C164   1.550       .  S
C163        C566   1.512       .  S
C164        C168   1.547       .  S
C164        C166   1.544       .  S
C164        H170   1.106       .  S
C165        H171   1.087       .  S
C165        C166   1.357       .  D
C166        C726   1.484       .  S
C167        H172   1.086       .  S
C167        C168   1.367       .  D
C168        C537   1.510       .  S
C173        C174   1.550       .  S
C173        C179   1.517       .  S
C173        C177   1.550       .  S
C173        C517   1.553       .  S
C174        H181   1.079       .  S
C174        C175   1.378       .  D
C175        C176   1.550       .  S
C175        C506   1.527       .  S
C176        C180   1.559       .  S
C176        C178   1.540       .  S
C176        H182   1.096       .  S
C177        H183   1.084       .  S
C177        C178   1.372       .  D
C178        C606   1.509       .  S
C179        H184   1.087       .  S
C179        C180   1.352       .  D
C180        C857   1.487       .  S
C185        C186   1.544       .  S
C185        C191   1.526       .  S
C185        C189   1.551       .  S
C185        C526   1.559       .  S
C186        H193   1.081       .  S
C186        C187   1.363       .  D
C187        C188   1.543       .  S
C187        C486   1.501       .  S
C188        C192   1.550       .  S
C188        C190   1.552       .  S
C188        H194   1.108       .  S
C189        H195   1.085       .  S
C189        C190   1.379       .  D
C190        C557   1.512       .  S
C191        H196   1.086   1_655  S
C191        C192   1.363       .  D
C192        C806   1.503       .  S
O197        C200   1.266       .  A
O197       Cd202   2.468       .  S
C198        O207   1.263       .  A
C198        O203   1.263       .  A
C198        C437   1.473       .  S
O199        C205   1.266       .  A
O199       Cd202   2.509       .  S
C200        O208   1.268       .  A
C200        C457   1.478       .  S
C201        O206   1.265       .  A
C201        O204   1.264       .  A
C201        C477   1.486       .  S
Cd202       O209   2.455       .  S
Cd202       O208   2.465       .  S
Cd202       O207   2.453       .  S
Cd202       O203   2.469       .  S
Cd202       O206   2.494       .  S
Cd202       O204   2.469       .  S
C205        O209   1.263       .  A
C205        C826   1.480       .  S
O210        C213   1.265       .  A
O210       Cd215   2.456       .  S
C211        O220   1.267       .  A
C211        O216   1.266       .  A
C211        C426   1.481       .  S
O212        C218   1.269       .  A
O212       Cd215   2.497       .  S
C213        O221   1.264       .  A
C213        C446   1.471       .  S
C214        O219   1.266       .  A
C214        O217   1.262       .  A
C214        C877   1.484       .  S
Cd215       O222   2.461       .  S
Cd215       O221   2.450       .  S
Cd215       O220   2.482       .  S
Cd215       O216   2.463       .  S
Cd215       O219   2.519       .  S
Cd215       O217   2.462       .  S
C218        O222   1.263       .  A
C218        C497   1.490       .  S
C223        C224   1.538       .  S
C223        C229   1.530       .  S
C223        C227   1.553       .  S
C223        C946   1.557       .  S
C224        H231   1.082       .  S
C224        C225   1.363       .  D
C225        C226   1.550       .  S
C225       C1046   1.504       .  S
C226        C230   1.551       .  S
C226        C228   1.545       .  S
C226        H232   1.109       .  S
C227        H233   1.084       .  S
C227        C228   1.374       .  D
C228        C406   1.503       .  S
C229        H234   1.086       .  S
C229        C230   1.368       .  D
C230        C466   1.500       .  S
C235        C236   1.536       .  S
C235        C241   1.549       .  S
C235        C239   1.532       .  S
C235        C897   1.552       .  S
C236        H243   1.084       .  S
C236        C237   1.374       .  D
C237        C238   1.551       .  S
C237        C997   1.522       .  S
C238        C242   1.540       .  S
C238        C240   1.561   1_556  S
C238        H244   1.100   1_556  S
C239        H245   1.085   1_556  S
C239        C240   1.358   1_556  D
C240        C386   1.488       .  S
C241        H246   1.083       .  S
C241        C242   1.369       .  D
C242        C417   1.506   1_556  S
C247        C248   1.544       .  S
C247        C253   1.537       .  S
C247        C251   1.549       .  S
C247        C357   1.558       .  S
C248        H255   1.086       .  S
C248        C249   1.373       .  D
C249        C250   1.550       .  S
C249       C1217   1.509       .  S
C250        C254   1.546       .  S
C250        C252   1.541       .  S
C250        H256   1.108       .  S
C251        H257   1.077   1_565  S
C251        C252   1.365       .  D
C252        C377   1.501       .  S
C253        H258   1.085       .  S
C253        C254   1.368       .  D
C254        C337   1.503       .  S
C259        C260   1.537       .  S
C259        C265   1.552       .  S
C259        C263   1.538       .  S
C259        C366   1.558       .  S
C260        H267   1.086       .  S
C260        C261   1.355       .  D
C261        C262   1.542       .  S
C261       C1146   1.488       .  S
C262        C266   1.550       .  S
C262        C264   1.546       .  S
C262        H268   1.108       .  S
C263        H269   1.085   1_565  S
C263        C264   1.369       .  D
C264        C397   1.509       .  S
C265        H270   1.083       .  S
C265        C266   1.381       .  D
C266        C317   1.509       .  S
O271        C274   1.261       .  A
O271       Cd276   2.469       .  S
C272        O281   1.266       .  A
C272        O277   1.267       .  A
C272        C306   1.468       .  S
O273        C279   1.269       .  A
O273       Cd276   2.513       .  S
C274        O282   1.263       .  A
C274        C577   1.487       .  S
C275        O280   1.268   1_655  A
C275        O278   1.260       .  A
C275       C1237   1.479       .  S
Cd276       O283   2.436       .  S
Cd276       O282   2.479       .  S
Cd276       O281   2.442       .  S
Cd276       O277   2.452       .  S
Cd276       O280   2.519       .  S
Cd276       O278   2.419   1_455  S
C279        O283   1.262       .  A
C279        C346   1.486       .  S
O284        C287   1.267       .  A
O284       Cd289   2.472       .  S
C285        O294   1.263       .  A
C285        O290   1.265       .  A
C285        C546   1.475       .  S
O286        C292   1.265       .  A
O286       Cd289   2.497   1_455  S
C287        O295   1.266       .  A
C287        C297   1.478       .  S
C288        O293   1.266       .  A
C288        O291   1.262       .  A
C288        C326   1.480       .  S
Cd289       O296   2.445   1_655  S
Cd289       O295   2.445       .  S
Cd289       O294   2.460       .  S
Cd289       O290   2.477       .  S
Cd289       O293   2.481       .  S
Cd289       O291   2.442       .  S
C292        O296   1.263       .  A
C292       C1157   1.479       .  S
C297        C298   1.413   1_655  A
C297        C302   1.413       .  A
C298        C299   1.409       .  A
C298       Br310   1.929       .  S
C299        C300   1.408       .  A
C299       Br314   1.930       .  S
C300        C303   1.479       .  S
C300        C301   1.406   1_455  A
C301        C302   1.404       .  A
C301       Br309   1.932       .  S
C302       Br313   1.932       .  S
C303        C304   1.408       .  A
C303        C308   1.409   1_455  A
C304        C305   1.404       .  A
C304       Br315   1.930       .  S
C305        C306   1.408       .  A
C305       Br311   1.928       .  S
C306        C307   1.408   1_455  A
C307        C308   1.407       .  A
C307       Br316   1.929       .  S
C308       Br312   1.928       .  S
C317        C318   1.421       .  A
C317        C322   1.424       .  A
C318        C319   1.406       .  A
C318       Br330   1.925       .  S
C319        C320   1.402       .  A
C319       Br334   1.934       .  S
C320        C323   1.484       .  S
C320        C321   1.404       .  A
C321        C322   1.411       .  A
C321       Br329   1.934       .  S
C322       Br333   1.922       .  S
C323        C324   1.406       .  A
C323        C328   1.409       .  A
C324        C325   1.406       .  A
C324       Br335   1.931       .  S
C325        C326   1.416       .  A
C325       Br331   1.934       .  S
C326        C327   1.413       .  A
C327        C328   1.409       .  A
C327       Br336   1.931       .  S
C328       Br332   1.930       .  S
C337        C338   1.419       .  A
C337        C342   1.424       .  A
C338        C339   1.407       .  A
C338       Br350   1.927       .  S
C339        C340   1.405       .  A
C339       Br354   1.933       .  S
C340        C343   1.487       .  S
C340        C341   1.406       .  A
C341        C342   1.410       .  A
C341       Br349   1.931       .  S
C342       Br353   1.936       .  S
C343        C344   1.410       .  A
C343        C348   1.406       .  A
C344        C345   1.412       .  A
C344       Br355   1.929       .  S
C345        C346   1.414       .  A
C345       Br351   1.929       .  S
C346        C347   1.417       .  A
C347        C348   1.406       .  A
C347       Br356   1.933       .  S
C348       Br352   1.933       .  S
C357        C358   1.425       .  A
C357        C362   1.426       .  A
C358        C359   1.410       .  A
C358       Br370   1.933   1_565  S
C359        C360   1.407       .  A
C359       Br374   1.931   1_565  S
C360        C363   1.491       .  S
C360        C361   1.404       .  A
C361        C362   1.410       .  A
C361       Br369   1.936       .  S
C362       Br373   1.923       .  S
C363        C364   1.405       .  A
C363        C368   1.404       .  A
C364        C365   1.414       .  A
C364       Br375   1.933       .  S
C365        C366   1.425       .  A
C365       Br371   1.919       .  S
C366        C367   1.431       .  A
C367        C368   1.407       .  A
C367       Br376   1.937       .  S
C368       Br372   1.935       .  S
C377        C378   1.417   1_565  A
C377        C382   1.420   1_565  A
C378        C379   1.407       .  A
C378       Br390   1.920   1_545  S
C379        C380   1.405       .  A
C379       Br394   1.934       .  S
C380        C383   1.486       .  S
C380        C381   1.407       .  A
C381        C382   1.411       .  A
C381       Br389   1.930       .  S
C382       Br393   1.933       .  S
C383        C384   1.409       .  A
C383        C388   1.409       .  A
C384        C385   1.408       .  A
C384       Br395   1.930       .  S
C385        C386   1.413       .  A
C385       Br391   1.932   1_554  S
C386        C387   1.410       .  A
C387        C388   1.408       .  A
C387       Br396   1.931       .  S
C388       Br392   1.928       .  S
C397        C398   1.424   1_565  A
C397        C402   1.422       .  A
C398        C399   1.411       .  A
C398       Br410   1.931       .  S
C399        C400   1.405       .  A
C399       Br414   1.933       .  S
C400        C403   1.485       .  S
C400        C401   1.402       .  A
C401        C402   1.407   1_545  A
C401       Br409   1.936       .  S
C402       Br413   1.919       .  S
C403        C404   1.406       .  A
C403        C408   1.403       .  A
C404        C405   1.410       .  A
C404       Br415   1.932       .  S
C405        C406   1.419       .  A
C405       Br411   1.924       .  S
C406        C407   1.418       .  A
C407        C408   1.408       .  A
C407       Br416   1.914       .  S
C408       Br412   1.935       .  S
C417        C418   1.416   1_554  A
C417        C422   1.416       .  A
C418        C419   1.408   1_556  A
C418       Br430   1.915       .  S
C419        C420   1.404       .  A
C419       Br434   1.932   1_554  S
C420        C423   1.488       .  S
C420        C421   1.407       .  A
C421        C422   1.412       .  A
C421       Br429   1.931       .  S
C422       Br433   1.916       .  S
C423        C424   1.409       .  A
C423        C428   1.409       .  A
C424        C425   1.409       .  A
C424       Br435   1.930       .  S
C425        C426   1.412       .  A
C425       Br431   1.931       .  S
C426        C427   1.411       .  A
C427        C428   1.409       .  A
C427       Br436   1.929       .  S
C428       Br432   1.930       .  S
C437        C438   1.411       .  A
C437        C442   1.411       .  A
C438        C439   1.407       .  A
C438       Br450   1.930       .  S
C439        C440   1.409       .  A
C439       Br454   1.930       .  S
C440        C443   1.479       .  S
C440        C441   1.407       .  A
C441        C442   1.404       .  A
C441       Br449   1.931       .  S
C442       Br453   1.932       .  S
C443        C444   1.409       .  A
C443        C448   1.408       .  A
C444        C445   1.406       .  A
C444       Br455   1.930       .  S
C445        C446   1.409       .  A
C445       Br451   1.930       .  S
C446        C447   1.411       .  A
C447        C448   1.405       .  A
C447       Br456   1.932       .  S
C448       Br452   1.931       .  S
C457        C458   1.411       .  A
C457        C462   1.410       .  A
C458        C459   1.409       .  A
C458       Br470   1.927       .  S
C459        C460   1.409       .  A
C459       Br474   1.929       .  S
C460        C463   1.488       .  S
C460        C461   1.410       .  A
C461        C462   1.408       .  A
C461       Br469   1.930       .  S
C462       Br473   1.931       .  S
C463        C464   1.405       .  A
C463        C468   1.408       .  A
C464        C465   1.406       .  A
C464       Br475   1.932       .  S
C465        C466   1.417       .  A
C465       Br471   1.928       .  S
C466        C467   1.416       .  A
C467        C468   1.413       .  A
C467       Br476   1.920       .  S
C468       Br472   1.931       .  S
C477        C478   1.415       .  A
C477        C482   1.414       .  A
C478        C479   1.408       .  A
C478       Br490   1.932       .  S
C479        C480   1.407       .  A
C479       Br494   1.931       .  S
C480        C483   1.488       .  S
C480        C481   1.409       .  A
C481        C482   1.411       .  A
C481       Br489   1.930       .  S
C482       Br493   1.930       .  S
C483        C484   1.405       .  A
C483        C488   1.407       .  A
C484        C485   1.408       .  A
C484       Br495   1.932       .  S
C485        C486   1.416       .  A
C485       Br491   1.923       .  S
C486        C487   1.422       .  A
C487        C488   1.411       .  A
C487       Br496   1.935       .  S
C488       Br492   1.930       .  S
C497        C498   1.415       .  A
C497        C502   1.417       .  A
C498        C499   1.409       .  A
C498       Br510   1.931       .  S
C499        C500   1.408       .  A
C499       Br514   1.930       .  S
C500        C503   1.490       .  S
C500        C501   1.408       .  A
C501        C502   1.410       .  A
C501       Br509   1.931       .  S
C502       Br513   1.932       .  S
C503        C504   1.402       .  A
C503        C508   1.403       .  A
C504        C505   1.411       .  A
C504       Br515   1.934       .  S
C505        C506   1.431       .  A
C505       Br511   1.933       .  S
C506        C507   1.432       .  A
C507        C508   1.414       .  A
C507       Br516   1.929       .  S
C508       Br512   1.937       .  S
C517        C518   1.434       .  A
C517        C522   1.429       .  A
C518        C519   1.413       .  A
C518       Br530   1.935       .  S
C519        C520   1.402       .  A
C519       Br534   1.934   1_455  S
C520        C523   1.491       .  S
C520        C521   1.404       .  A
C521        C522   1.408       .  A
C521       Br529   1.934       .  S
C522       Br533   1.938       .  S
C523        C524   1.402       .  A
C523        C528   1.404   1_455  A
C524        C525   1.413       .  A
C524       Br535   1.933       .  S
C525        C526   1.429   1_455  A
C525       Br531   1.921       .  S
C526        C527   1.432       .  A
C527        C528   1.408       .  A
C527       Br536   1.938       .  S
C528       Br532   1.935       .  S
C537        C538   1.422       .  A
C537        C542   1.424       .  A
C538        C539   1.409       .  A
C538       Br550   1.922       .  S
C539        C540   1.404       .  A
C539       Br554   1.935       .  S
C540        C543   1.486       .  S
C540        C541   1.404       .  A
C541        C542   1.410       .  A
C541       Br549   1.933       .  S
C542       Br553   1.926       .  S
C543        C544   1.410       .  A
C543        C548   1.410       .  A
C544        C545   1.408       .  A
C544       Br555   1.929       .  S
C545        C546   1.410       .  A
C545       Br551   1.930   1_655  S
C546        C547   1.410       .  A
C547        C548   1.407       .  A
C547       Br556   1.931       .  S
C548       Br552   1.930       .  S
C557        C558   1.417       .  A
C557        C562   1.421       .  A
C558        C559   1.409       .  A
C558       Br570   1.920       .  S
C559        C560   1.408       .  A
C559       Br574   1.934       .  S
C560        C563   1.494       .  S
C560        C561   1.407       .  A
C561        C562   1.413       .  A
C561       Br569   1.935       .  S
C562       Br573   1.918       .  S
C563        C564   1.406       .  A
C563        C568   1.409       .  A
C564        C565   1.405       .  A
C564       Br575   1.935       .  S
C565        C566   1.419       .  A
C565       Br571   1.920       .  S
C566        C567   1.420       .  A
C567        C568   1.414       .  A
C567       Br576   1.930       .  S
C568       Br572   1.930       .  S
C577        C578   1.417       .  A
C577        C582   1.418       .  A
C578        C579   1.408       .  A
C578       Br590   1.933       .  S
C579        C580   1.407       .  A
C579       Br594   1.931   1_554  S
C580        C583   1.485       .  S
C580        C581   1.407       .  A
C581        C582   1.408       .  A
C581       Br589   1.932       .  S
C582       Br593   1.933       .  S
C583        C584   1.408       .  A
C583        C588   1.407       .  A
C584        C585   1.409   1_554  A
C584       Br595   1.930   1_554  S
C585        C586   1.414   1_556  A
C585       Br591   1.928       .  S
C586        C587   1.417       .  A
C587        C588   1.406       .  A
C587       Br596   1.935       .  S
C588       Br592   1.932       .  S
C597        C598   1.415       .  A
C597        C602   1.420       .  A
C598        C599   1.410       .  A
C598       Br610   1.926       .  S
C599        C600   1.409       .  A
C599       Br614   1.931       .  S
C600        C603   1.491       .  S
C600        C601   1.408       .  A
C601        C602   1.407       .  A
C601       Br609   1.933       .  S
C602       Br613   1.935   1_554  S
C603        C604   1.406       .  A
C603        C608   1.406       .  A
C604        C605   1.412       .  A
C604       Br615   1.933       .  S
C605        C606   1.423       .  A
C605       Br611   1.927       .  S
C606        C607   1.421       .  A
C607        C608   1.408       .  A
C607       Br616   1.924       .  S
C608       Br612   1.935       .  S
C617        C618   1.412       .  A
C617        C622   1.414       .  A
C618        C619   1.407       .  A
C618       Br630   1.928       .  S
C619        C620   1.409       .  A
C619       Br634   1.932       .  S
C620        C623   1.490       .  S
C620        C621   1.410       .  A
C621        C622   1.411       .  A
C621       Br629   1.929       .  S
C622       Br633   1.930       .  S
C623        C624   1.404       .  A
C623        C628   1.401       .  A
C624        C625   1.414       .  A
C624       Br635   1.933       .  S
C625        C626   1.429       .  A
C625       Br631   1.927       .  S
C626        C627   1.437       .  A
C627        C628   1.409       .  A
C627       Br636   1.938       .  S
C628       Br632   1.939       .  S
C637        C638   1.409       .  A
C637        C642   1.411       .  A
C638        C639   1.405       .  A
C638       Br650   1.932       .  S
C639        C640   1.410       .  A
C639       Br654   1.931       .  S
C640        C643   1.486       .  S
C640        C641   1.409       .  A
C641        C642   1.410       .  A
C641       Br649   1.928       .  S
C642       Br653   1.928       .  S
C643        C644   1.403       .  A
C643        C648   1.404       .  A
C644        C645   1.408       .  A
C644       Br655   1.931       .  S
C645        C646   1.427       .  A
C645       Br651   1.935   1_556  S
C646        C647   1.427       .  A
C647        C648   1.409       .  A
C647       Br656   1.927       .  S
C648       Br652   1.935       .  S
C657        C658   1.411       .  A
C657        C662   1.412       .  A
C658        C659   1.408       .  A
C658       Br670   1.929       .  S
C659        C660   1.409       .  A
C659       Br674   1.929       .  S
C660        C663   1.486       .  S
C660        C661   1.409       .  A
C661        C662   1.408       .  A
C661       Br669   1.929       .  S
C662       Br673   1.932       .  S
C663        C664   1.408       .  A
C663        C668   1.409       .  A
C664        C665   1.408       .  A
C664       Br675   1.930       .  S
C665        C666   1.413       .  A
C665       Br671   1.931       .  S
C666        C667   1.413       .  A
C667        C668   1.409       .  A
C667       Br676   1.930       .  S
C668       Br672   1.930       .  S
C677        C678   1.414       .  A
C677        C682   1.408   1_655  A
C678        C679   1.405   1_655  A
C678       Br690   1.932       .  S
C679        C680   1.410       .  A
C679       Br694   1.933       .  S
C680        C683   1.489       .  S
C680        C681   1.412       .  A
C681        C682   1.408       .  A
C681       Br689   1.932       .  S
C682       Br693   1.919       .  S
C683        C684   1.405       .  A
C683        C688   1.403       .  A
C684        C685   1.406       .  A
C684       Br695   1.935       .  S
C685        C686   1.422       .  A
C685       Br691   1.921       .  S
C686        C687   1.430       .  A
C687        C688   1.411       .  A
C687       Br696   1.917       .  S
C688       Br692   1.938       .  S
C697        C698   1.427       .  A
C697        C702   1.424       .  A
C698        C699   1.414       .  A
C698       Br710   1.927       .  S
C699        C700   1.404       .  A
C699       Br714   1.933       .  S
C700        C703   1.486       .  S
C700        C701   1.402       .  A
C701        C702   1.406       .  A
C701       Br709   1.935       .  S
C702       Br713   1.930       .  S
C703        C704   1.406       .  A
C703        C708   1.406       .  A
C704        C705   1.408       .  A
C704       Br715   1.931       .  S
C705        C706   1.419       .  A
C705       Br711   1.933       .  S
C706        C707   1.421       .  A
C707        C708   1.409       .  A
C707       Br716   1.934       .  S
C708       Br712   1.932       .  S
C717        C718   1.420   1_455  A
C717        C722   1.411       .  A
C718        C719   1.404       .  A
C718       Br730   1.937       .  S
C719        C720   1.409       .  A
C719       Br734   1.935       .  S
C720        C723   1.491       .  S
C720        C721   1.412   1_655  A
C721        C722   1.410       .  A
C721       Br729   1.930       .  S
C722       Br733   1.923       .  S
C723        C724   1.412       .  A
C723        C728   1.413       .  A
C724        C725   1.405       .  A
C724       Br735   1.933       .  S
C725        C726   1.412       .  A
C725       Br731   1.934       .  S
C726        C727   1.408       .  A
C727        C728   1.410       .  A
C727       Br736   1.924       .  S
C728       Br732   1.930       .  S
C737        C738   1.415       .  A
C737        C742   1.415       .  A
C738        C739   1.410       .  A
C738       Br750   1.931       .  S
C739        C740   1.409       .  A
C739       Br754   1.930       .  S
C740        C743   1.489       .  S
C740        C741   1.407       .  A
C741        C742   1.409       .  A
C741       Br749   1.931       .  S
C742       Br753   1.930       .  S
C743        C744   1.404       .  A
C743        C748   1.404       .  A
C744        C745   1.413       .  A
C744       Br755   1.935       .  S
C745        C746   1.431       .  A
C745       Br751   1.930       .  S
C746        C747   1.424       .  A
C747        C748   1.408       .  A
C747       Br756   1.936       .  S
C748       Br752   1.930       .  S
C757        C758   1.426   1_655  A
C757        C762   1.428       .  A
C758        C759   1.404       .  A
C758       Br770   1.933       .  S
C759        C760   1.403       .  A
C759       Br774   1.934       .  S
C760        C763   1.493       .  S
C760        C761   1.407   1_455  A
C761        C762   1.417       .  A
C761       Br769   1.932       .  S
C762       Br773   1.929       .  S
C763        C764   1.408       .  A
C763        C768   1.407       .  A
C764        C765   1.407       .  A
C764       Br775   1.932       .  S
C765        C766   1.425       .  A
C765       Br771   1.938       .  S
C766        C767   1.421       .  A
C767        C768   1.414       .  A
C767       Br776   1.921       .  S
C768       Br772   1.932       .  S
C777        C778   1.429       .  A
C777        C782   1.429       .  A
C778        C779   1.405       .  A
C778       Br790   1.923       .  S
C779        C780   1.402       .  A
C779       Br794   1.936       .  S
C780        C783   1.492       .  S
C780        C781   1.407       .  A
C781        C782   1.412       .  A
C781       Br789   1.935       .  S
C782       Br793   1.921       .  S
C783        C784   1.408       .  A
C783        C788   1.408       .  A
C784        C785   1.405       .  A
C784       Br795   1.934       .  S
C785        C786   1.418       .  A
C785       Br791   1.926       .  S
C786        C787   1.421       .  A
C787        C788   1.411       .  A
C787       Br796   1.920       .  S
C788       Br792   1.934       .  S
C797        C798   1.415       .  A
C797        C802   1.419       .  A
C798        C799   1.411       .  A
C798       Br810   1.924       .  S
C799        C800   1.409       .  A
C799       Br814   1.930       .  S
C800        C803   1.487       .  S
C800        C801   1.407       .  A
C801        C802   1.404       .  A
C801       Br809   1.933       .  S
C802       Br813   1.935       .  S
C803        C804   1.405       .  A
C803        C808   1.408       .  A
C804        C805   1.407       .  A
C804       Br815   1.932       .  S
C805        C806   1.423   1_455  A
C805       Br811   1.936   1_455  S
C806        C807   1.418       .  A
C807        C808   1.411   1_655  A
C807       Br816   1.927       .  S
C808       Br812   1.933       .  S
C817        C818   1.429       .  A
C817        C822   1.424       .  A
C818        C819   1.409       .  A
C818       Br830   1.938       .  S
C819        C820   1.404       .  A
C819       Br834   1.934       .  S
C820        C823   1.488       .  S
C820        C821   1.404       .  A
C821        C822   1.411       .  A
C821       Br829   1.932       .  S
C822       Br833   1.926       .  S
C823        C824   1.410       .  A
C823        C828   1.409       .  A
C824        C825   1.405       .  A
C824       Br835   1.932       .  S
C825        C826   1.409       .  A
C825       Br831   1.927       .  S
C826        C827   1.412       .  A
C827        C828   1.412       .  A
C827       Br836   1.928       .  S
C828       Br832   1.927       .  S
C837        C838   1.411       .  A
C837        C842   1.411       .  A
C838        C839   1.406       .  A
C838       Br850   1.932       .  S
C839        C840   1.409       .  A
C839       Br854   1.931       .  S
C840        C843   1.488       .  S
C840        C841   1.410       .  A
C841        C842   1.410       .  A
C841       Br849   1.928       .  S
C842       Br853   1.930       .  S
C843        C844   1.405       .  A
C843        C848   1.408       .  A
C844        C845   1.406       .  A
C844       Br855   1.934       .  S
C845        C846   1.416       .  A
C845       Br851   1.920       .  S
C846        C847   1.420       .  A
C847        C848   1.413       .  A
C847       Br856   1.933       .  S
C848       Br852   1.929       .  S
C857        C858   1.411       .  A
C857        C862   1.416       .  A
C858        C859   1.408       .  A
C858       Br870   1.930       .  S
C859        C860   1.409   1_455  A
C859       Br874   1.928       .  S
C860        C863   1.487       .  S
C860        C861   1.408       .  A
C861        C862   1.407   1_655  A
C861       Br869   1.932       .  S
C862       Br873   1.932   1_455  S
C863        C864   1.402       .  A
C863        C868   1.402       .  A
C864        C865   1.414       .  A
C864       Br875   1.937   1_655  S
C865        C866   1.435       .  A
C865       Br871   1.930   1_554  S
C866        C867   1.427       .  A
C867        C868   1.408       .  A
C867       Br876   1.933       .  S
C868       Br872   1.934       .  S
C877        C878   1.412       .  A
C877        C882   1.412       .  A
C878        C879   1.412       .  A
C878       Br890   1.930       .  S
C879        C880   1.412       .  A
C879       Br894   1.930       .  S
C880        C883   1.495       .  S
C880        C881   1.410       .  A
C881        C882   1.410       .  A
C881       Br889   1.928   1_554  S
C882       Br893   1.930       .  S
C883        C884   1.405       .  A
C883        C888   1.404       .  A
C884        C885   1.413       .  A
C884       Br895   1.931       .  S
C885        C886   1.429       .  A
C885       Br891   1.935       .  S
C886        C887   1.428       .  A
C887        C888   1.413       .  A
C887       Br896   1.923       .  S
C888       Br892   1.936       .  S
C897        C898   1.427       .  A
C897        C902   1.428       .  A
C898        C899   1.410       .  A
C898       Br910   1.927       .  S
C899        C900   1.404       .  A
C899       Br914   1.935       .  S
C900        C903   1.486       .  S
C900        C901   1.403       .  A
C901        C902   1.408       .  A
C901       Br909   1.932       .  S
C902       Br913   1.934       .  S
C903        C904   1.408       .  A
C903        C908   1.410       .  A
C904        C905   1.408       .  A
C904       Br915   1.930       .  S
C905        C906   1.412       .  A
C905       Br911   1.930       .  S
C906        C907   1.412       .  A
C907        C908   1.407       .  A
C907       Br916   1.931       .  S
C908       Br912   1.931       .  S
C917        C918   1.410       .  A
C917        C922   1.410       .  A
C918        C919   1.407       .  A
C918       Br930   1.931       .  S
C919        C920   1.409       .  A
C919       Br934   1.929       .  S
C920        C923   1.484       .  S
C920        C921   1.409       .  A
C921        C922   1.407       .  A
C921       Br929   1.929       .  S
C922       Br933   1.931   1_655  S
C923        C924   1.405       .  A
C923        C928   1.403       .  A
C924        C925   1.411       .  A
C924       Br935   1.933       .  S
C925        C926   1.421       .  A
C925       Br931   1.919       .  S
C926        C927   1.415       .  A
C927        C928   1.406       .  A
C927       Br936   1.918   1_556  S
C928       Br932   1.932       .  S
C937        C938   1.412       .  A
C937        C942   1.411       .  A
C938        C939   1.410       .  A
C938       Br950   1.929       .  S
C939        C940   1.409       .  A
C939       Br954   1.928       .  S
C940        C943   1.487       .  S
C940        C941   1.410       .  A
C941        C942   1.407       .  A
C941       Br949   1.931       .  S
C942       Br953   1.931       .  S
C943        C944   1.403       .  A
C943        C948   1.402       .  A
C944        C945   1.411       .  A
C944       Br955   1.933       .  S
C945        C946   1.425       .  A
C945       Br951   1.922       .  S
C946        C947   1.431       .  A
C947        C948   1.409       .  A
C947       Br956   1.936       .  S
C948       Br952   1.934       .  S
C957        C958   1.413       .  A
C957        C962   1.414       .  A
C958        C959   1.404       .  A
C958       Br970   1.933   1_455  S
C959        C960   1.407       .  A
C959       Br974   1.931   1_455  S
C960        C963   1.477       .  S
C960        C961   1.407       .  A
C961        C962   1.405       .  A
C961       Br969   1.932       .  S
C962       Br973   1.933       .  S
C963        C964   1.409       .  A
C963        C968   1.407   1_455  A
C964        C965   1.406       .  A
C964       Br975   1.930       .  S
C965        C966   1.410   1_455  A
C965       Br971   1.931       .  S
C966        C967   1.411       .  A
C967        C968   1.403       .  A
C967       Br976   1.929       .  S
C968       Br972   1.931       .  S
C977        C978   1.411       .  A
C977        C982   1.412       .  A
C978        C979   1.405       .  A
C978       Br990   1.932       .  S
C979        C980   1.409       .  A
C979       Br994   1.931       .  S
C980        C983   1.482       .  S
C980        C981   1.409       .  A
C981        C982   1.407       .  A
C981       Br989   1.930       .  S
C982       Br993   1.931       .  S
C983        C984   1.408       .  A
C983        C988   1.408       .  A
C984        C985   1.407       .  A
C984       Br995   1.931       .  S
C985        C986   1.411       .  A
C985       Br991   1.926       .  S
C986        C987   1.412       .  A
C987        C988   1.405       .  A
C987       Br996   1.932       .  S
C988       Br992   1.931       .  S
C997        C998   1.432       .  A
C997       C1002   1.433       .  A
C998        C999   1.407       .  A
C998      Br1010   1.935       .  S
C999       C1000   1.399       .  A
C999      Br1014   1.936       .  S
C1000      C1003   1.485       .  S
C1000      C1001   1.402       .  A
C1001      C1002   1.414       .  A
C1001     Br1009   1.936       .  S
C1002     Br1013   1.930       .  S
C1003      C1004   1.404       .  A
C1003      C1008   1.408       .  A
C1004      C1005   1.403       .  A
C1004     Br1015   1.935       .  S
C1005      C1006   1.419       .  A
C1005     Br1011   1.929       .  S
C1006      C1007   1.414       .  A
C1007      C1008   1.412       .  A
C1007     Br1016   1.923       .  S
C1008     Br1012   1.928       .  S
C1017      C1018   1.415       .  A
C1017      C1022   1.414       .  A
C1018      C1019   1.406       .  A
C1018     Br1030   1.916       .  S
C1019      C1020   1.404       .  A
C1019     Br1034   1.933       .  S
C1020      C1023   1.482       .  S
C1020      C1021   1.406       .  A
C1021      C1022   1.408       .  A
C1021     Br1029   1.931       .  S
C1022     Br1033   1.922       .  S
C1023      C1024   1.408       .  A
C1023      C1028   1.407       .  A
C1024      C1025   1.407       .  A
C1024     Br1035   1.931       .  S
C1025      C1026   1.411       .  A
C1025     Br1031   1.930       .  S
C1026      C1027   1.415       .  A
C1027      C1028   1.407       .  A
C1027     Br1036   1.930       .  S
C1028     Br1032   1.931       .  S
C1037      C1038   1.417       .  A
C1037      C1042   1.420       .  A
C1038      C1039   1.411       .  A
C1038     Br1050   1.923       .  S
C1039      C1040   1.407       .  A
C1039     Br1054   1.933       .  S
C1040      C1043   1.488       .  S
C1040      C1041   1.405       .  A
C1041      C1042   1.409       .  A
C1041     Br1049   1.930       .  S
C1042     Br1053   1.935       .  S
C1043      C1044   1.405       .  A
C1043      C1048   1.406       .  A
C1044      C1045   1.408       .  A
C1044     Br1055   1.933       .  S
C1045      C1046   1.426       .  A
C1045     Br1051   1.940       .  S
C1046      C1047   1.418       .  A
C1047      C1048   1.411       .  A
C1047     Br1056   1.926       .  S
C1048     Br1052   1.931       .  S
C1057      C1058   1.413       .  A
C1057      C1062   1.417       .  A
C1058      C1059   1.408       .  A
C1058     Br1070   1.930       .  S
C1059      C1060   1.409       .  A
C1059     Br1074   1.931       .  S
C1060      C1063   1.485       .  S
C1060      C1061   1.407       .  A
C1061      C1062   1.407       .  A
C1061     Br1069   1.931       .  S
C1062     Br1073   1.934       .  S
C1063      C1064   1.405       .  A
C1063      C1068   1.407       .  A
C1064      C1065   1.407       .  A
C1064     Br1075   1.933       .  S
C1065      C1066   1.421       .  A
C1065     Br1071   1.928       .  S
C1066      C1067   1.415       .  A
C1067      C1068   1.409       .  A
C1067     Br1076   1.925       .  S
C1068     Br1072   1.931       .  S
C1077      C1078   1.429       .  A
C1077      C1082   1.431       .  A
C1078      C1079   1.410       .  A
C1078     Br1090   1.925       .  S
C1079      C1080   1.401       .  A
C1079     Br1094   1.936       .  S
C1080      C1083   1.489       .  S
C1080      C1081   1.403       .  A
C1081      C1082   1.410       .  A
C1081     Br1089   1.935   1_545  S
C1082     Br1093   1.933   1_545  S
C1083      C1084   1.405       .  A
C1083      C1088   1.404       .  A
C1084      C1085   1.405       .  A
C1084     Br1095   1.934       .  S
C1085      C1086   1.421       .  A
C1085     Br1091   1.923       .  S
C1086      C1087   1.429       .  A
C1087      C1088   1.413       .  A
C1087     Br1096   1.929       .  S
C1088     Br1092   1.931       .  S
C1097      C1098   1.421       .  A
C1097      C1102   1.421       .  A
C1098      C1099   1.410       .  A
C1098     Br1110   1.924       .  S
C1099      C1100   1.406       .  A
C1099     Br1114   1.935       .  S
C1100      C1103   1.488       .  S
C1100      C1101   1.405       .  A
C1101      C1102   1.409       .  A
C1101     Br1109   1.931       .  S
C1102     Br1113   1.932       .  S
C1103      C1104   1.408       .  A
C1103      C1108   1.410       .  A
C1104      C1105   1.408       .  A
C1104     Br1115   1.930       .  S
C1105      C1106   1.412       .  A
C1105     Br1111   1.928       .  S
C1106      C1107   1.412       .  A
C1107      C1108   1.410       .  A
C1107     Br1116   1.928       .  S
C1108     Br1112   1.931       .  S
C1117      C1118   1.409       .  A
C1117      C1122   1.412       .  A
C1118      C1119   1.406       .  A
C1118     Br1130   1.930       .  S
C1119      C1120   1.408       .  A
C1119     Br1134   1.928       .  S
C1120      C1123   1.480       .  S
C1120      C1121   1.407       .  A
C1121      C1122   1.405       .  A
C1121     Br1129   1.931       .  S
C1122     Br1133   1.932       .  S
C1123      C1124   1.403       .  A
C1123      C1128   1.403       .  A
C1124      C1125   1.407   1_565  A
C1124     Br1135   1.935       .  S
C1125      C1126   1.420       .  A
C1125     Br1131   1.917       .  S
C1126      C1127   1.420   1_545  A
C1127      C1128   1.408       .  A
C1127     Br1136   1.925       .  S
C1128     Br1132   1.932       .  S
C1137      C1138   1.436       .  A
C1137      C1142   1.424       .  A
C1138      C1139   1.412       .  A
C1138     Br1150   1.932       .  S
C1139      C1140   1.405       .  A
C1139     Br1154   1.938       .  S
C1140      C1143   1.492       .  S
C1140      C1141   1.406       .  A
C1141      C1142   1.405       .  A
C1141     Br1149   1.933       .  S
C1142     Br1153   1.934       .  S
C1143      C1144   1.413       .  A
C1143      C1148   1.411       .  A
C1144      C1145   1.407       .  A
C1144     Br1155   1.935       .  S
C1145      C1146   1.409       .  A
C1145     Br1151   1.921       .  S
C1146      C1147   1.414       .  A
C1147      C1148   1.408       .  A
C1147     Br1156   1.933       .  S
C1148     Br1152   1.931       .  S
C1157      C1158   1.412       .  A
C1157      C1162   1.412       .  A
C1158      C1159   1.406       .  A
C1158     Br1170   1.932       .  S
C1159      C1160   1.408       .  A
C1159     Br1174   1.931       .  S
C1160      C1163   1.486       .  S
C1160      C1161   1.411       .  A
C1161      C1162   1.409       .  A
C1161     Br1169   1.931       .  S
C1162     Br1173   1.930       .  S
C1163      C1164   1.405       .  A
C1163      C1168   1.407       .  A
C1164      C1165   1.403       .  A
C1164     Br1175   1.932       .  S
C1165      C1166   1.423       .  A
C1165     Br1171   1.937       .  S
C1166      C1167   1.425       .  A
C1167      C1168   1.412       .  A
C1167     Br1176   1.934       .  S
C1168     Br1172   1.931       .  S
C1177      C1178   1.413       .  A
C1177      C1182   1.410       .  A
C1178      C1179   1.406       .  A
C1178     Br1190   1.932   1_556  S
C1179      C1180   1.408       .  A
C1179     Br1194   1.930       .  S
C1180      C1183   1.485       .  S
C1180      C1181   1.409       .  A
C1181      C1182   1.408       .  A
C1181     Br1189   1.930       .  S
C1182     Br1193   1.927       .  S
C1183      C1184   1.410       .  A
C1183      C1188   1.409       .  A
C1184      C1185   1.407       .  A
C1184     Br1195   1.931       .  S
C1185      C1186   1.410       .  A
C1185     Br1191   1.930       .  S
C1186      C1187   1.410       .  A
C1187      C1188   1.408       .  A
C1187     Br1196   1.929       .  S
C1188     Br1192   1.928       .  S
C1197      C1198   1.429       .  A
C1197      C1202   1.428       .  A
C1198      C1199   1.408       .  A
C1198     Br1210   1.922       .  S
C1199      C1200   1.402       .  A
C1199     Br1214   1.938       .  S
C1200      C1203   1.487       .  S
C1200      C1201   1.401       .  A
C1201      C1202   1.408       .  A
C1201     Br1209   1.935       .  S
C1202     Br1213   1.918       .  S
C1203      C1204   1.405       .  A
C1203      C1208   1.403       .  A
C1204      C1205   1.410       .  A
C1204     Br1215   1.935       .  S
C1205      C1206   1.430       .  A
C1205     Br1211   1.938       .  S
C1206      C1207   1.426   1_565  A
C1207      C1208   1.406   1_545  A
C1207     Br1216   1.925       .  S
C1208     Br1212   1.938       .  S
C1217      C1218   1.419       .  A
C1217      C1222   1.421       .  A
C1218      C1219   1.406       .  A
C1218     Br1230   1.919       .  S
C1219      C1220   1.402       .  A
C1219     Br1234   1.933       .  S
C1220      C1223   1.486       .  S
C1220      C1221   1.406       .  A
C1221      C1222   1.412       .  A
C1221     Br1229   1.933       .  S
C1222     Br1233   1.921       .  S
C1223      C1224   1.405       .  A
C1223      C1228   1.408       .  A
C1224      C1225   1.404       .  A
C1224     Br1235   1.933       .  S
C1225      C1226   1.421       .  A
C1225     Br1231   1.936       .  S
C1226      C1227   1.416       .  A
C1227      C1228   1.412       .  A
C1227     Br1236   1.926       .  S
C1228     Br1232   1.930       .  S
C1237      C1238   1.413       .  A
C1237      C1242   1.413       .  A
C1238      C1239   1.411       .  A
C1238     Br1250   1.928       .  S
C1239      C1240   1.408       .  A
C1239     Br1254   1.928       .  S
C1240      C1243   1.484       .  S
C1240      C1241   1.408       .  A
C1241      C1242   1.404       .  A
C1241     Br1249   1.933       .  S
C1242     Br1253   1.934       .  S
C1243      C1244   1.407       .  A
C1243      C1248   1.402       .  A
C1244      C1245   1.411       .  A
C1244     Br1255   1.932       .  S
C1245      C1246   1.426       .  A
C1245     Br1251   1.936       .  S
C1246      C1247   1.419   1_554  A
C1247      C1248   1.403   1_556  A
C1247     Br1256   1.922       .  S
C1248     Br1252   1.931   1_554  S
