geometry optimzed in LAMMPS
_audit_creation_date              2020-11-30 
_audit_creation_method            'lammps2cif' 
_symmetry_space_group_name_H-M    'P1' 
_symmetry_Int_Tables_number       1 
_symmetry_cell_setting            triclinic 
loop_ 
_symmetry_equiv_pos_as_xyz 
  x,y,z 
_cell_length_a                    38.00008508 
_cell_length_b                    35.99269375540598 
_cell_length_c                    39.002910989016044 
_cell_angle_alpha                 88.81576513771466 
_cell_angle_beta                  89.00926552944081 
_cell_angle_gamma                 90.15465857680091 
loop_ 
_atom_site_label 
_atom_site_type_symbol 
_atom_site_fract_x 
_atom_site_fract_y 
_atom_site_fract_z 
_atom_site_charge 
N1          N  0.49928174  0.99417549  0.46786460    -0.37200
N2          N  0.49972150  0.05464972  0.51828179    -0.57700
N3          N  0.49507187  0.99974160  0.57332188    -0.37200
N4          N  0.49656192  0.93906021  0.52285543    -0.57700
C5          C  0.50110842  0.02388593  0.44616013     0.26400
C6          C  0.50016461  0.96311033  0.44876522     0.26400
C7          C  0.50141174  0.03052068  0.59180698     0.26400
C8          C  0.49977146  0.96987279  0.59432422     0.26400
C9          C  0.49838108  0.07550997  0.48914595     0.35000
C10         C  0.49785436  0.07835554  0.54473880     0.35000
C11         C  0.49408673  0.91550468  0.49636813     0.35000
C12         C  0.49254600  0.91851711  0.55199800     0.35000
C13         C  0.50324089  0.01155090  0.41268104    -0.22500
C14         C  0.50256221  0.97339376  0.41433813    -0.22500
C15         C  0.50913371  0.02000641  0.62520407    -0.22500
C16         C  0.50828432  0.98188365  0.62678718    -0.22500
C17         C  0.49621240  0.11284361  0.49720912    -0.23500
C18         C  0.49586304  0.11461719  0.53236456    -0.23500
C19         C  0.48872454  0.87955911  0.50885063    -0.23500
C20         C  0.48777892  0.88144734  0.54403952    -0.23500
C21         C  0.49981160  0.06186933  0.45527777    -0.18900
C22         C  0.49715486  0.92578885  0.46110243    -0.18900
C23         C  0.49567194  0.93203461  0.58566448    -0.18900
C24         C  0.49956177  0.06792654  0.57985582    -0.18900
H25         H  0.50450154  0.02826390  0.38930306     0.14000
H26         H  0.50293116  0.95537284  0.39250318     0.14000
H27         H  0.51468016  0.03790452  0.64636133     0.14000
H28         H  0.51313820  0.96497828  0.64947448     0.14000
H29         H  0.49510601  0.13643886  0.47959885     0.12300
H30         H  0.49458596  0.13975342  0.54709410     0.12300
H31         H  0.48598950  0.85454339  0.49418229     0.12300
H32         H  0.48437817  0.85810381  0.56175239     0.12300
H33         H  0.49629143  0.99544967  0.49406862     0.25600
H34         H  0.48464593  0.99900603  0.54899666     0.25600
N35         N  0.99988802  0.54808303  0.52011167    -0.37200
N36         N  0.94548756  0.49084167  0.52289583    -0.57700
N37         N  0.00031386  0.43430728  0.52283134    -0.37200
N38         N  0.05453511  0.49184597  0.52270271    -0.57700
C39         C  0.97122938  0.56916309  0.52671292     0.26400
C40         C  0.02857481  0.56974199  0.52425004     0.26400
C41         C  0.97151258  0.41232513  0.52643793     0.26400
C42         C  0.02889933  0.41294328  0.52885802     0.26400
C43         C  0.92479700  0.52103412  0.51853209     0.35000
C44         C  0.92509978  0.46072420  0.51756831     0.33800
C45         C  0.07513091  0.52190568  0.51604368     0.35000
C46         C  0.07550601  0.46176396  0.52006394     0.35000
C47         C  0.98189526  0.60475748  0.53484402    -0.22500
C48         C  0.01801053  0.60515127  0.53321346    -0.22500
C49         C  0.98194347  0.37630626  0.53450039    -0.22500
C50         C  0.01809782  0.37671681  0.53609848    -0.22500
C51         C  0.89081195  0.51001433  0.51123557    -0.23500
C52         C  0.89101625  0.47183814  0.51052847    -0.23500
C53         C  0.10952888  0.51096546  0.50979848    -0.23500
C54         C  0.10980734  0.47289672  0.51255429    -0.23500
C55         C  0.93579285  0.55829705  0.52247602    -0.18900
C56         C  0.06390164  0.55915307  0.51812641    -0.18900
C57         C  0.06449243  0.42443111  0.52517505    -0.18900
C58         C  0.93629330  0.42330731  0.52062326    -0.18900
H59         H  0.96540686  0.62838584  0.54042246     0.14000
H60         H  0.03451656  0.62910892  0.53742382     0.14000
H61         H  0.96530149  0.35207571  0.53839095     0.14000
H62         H  0.03457179  0.35283641  0.54129566     0.14000
H63         H  0.86814803  0.52759431  0.50720793     0.12300
H64         H  0.86851383  0.45428009  0.50586530     0.12300
H65         H  0.13218014  0.52858561  0.50449661     0.12300
H66         H  0.13276258  0.45547385  0.50978565     0.12300
H67         H  0.99983980  0.52219708  0.50899275     0.25600
H68         H  0.00059125  0.46112879  0.51283445     0.25600
N69         N  0.49431493  0.50890370  0.07282543    -0.37200
N70         N  0.55298081  0.49155195  0.02805103    -0.57700
N71         N  0.50591966  0.49385056  0.96918681    -0.37200
N72         N  0.44661652  0.50918851  0.01467397    -0.57700
C73         C  0.51975216  0.50682393  0.09655440     0.26400
C74         C  0.46326407  0.51026350  0.08992950     0.26400
C75         C  0.53750148  0.49427728  0.95267234     0.26400
C76         C  0.48136498  0.50362552  0.94590487     0.26400
C77         C  0.57076217  0.49303572  0.05765768     0.35000
C78         C  0.57698786  0.48498562  0.00314255     0.35000
C79         C  0.42224285  0.50795876  0.04015184     0.35000
C80         C  0.42897331  0.50658054  0.98518228     0.35000
C81         C  0.50482056  0.50924072  0.12911339    -0.22500
C82         C  0.46921925  0.51133236  0.12496646    -0.22500
C83         C  0.53270747  0.50297078  0.91821348    -0.22500
C84         C  0.49732640  0.50891289  0.91396882    -0.22500
C85         C  0.60624231  0.48710200  0.05158000    -0.23500
C86         C  0.61020103  0.48149357  0.01719196    -0.23500
C87         C  0.38877336  0.50536587  0.02675799    -0.23500
C88         C  0.39300851  0.50484486  0.99185504    -0.23500
C89         C  0.55578839  0.50029421  0.09013666    -0.18900
C90         C  0.42956997  0.50788711  0.07539226    -0.18900
C91         C  0.44475894  0.50639014  0.95227344    -0.18900
C92         C  0.57068266  0.48773076  0.96763422    -0.18900
H93         H  0.51799873  0.50800681  0.15349307     0.14000
H94         H  0.44990146  0.51242040  0.14563830     0.14000
H95         H  0.55266246  0.50490444  0.89812270     0.14000
H96         H  0.48479857  0.51638103  0.89009034     0.14000
H97         H  0.62728556  0.48824555  0.06977126     0.12300
H98         H  0.63505546  0.47738233  0.00384740     0.12300
H99         H  0.36389618  0.50374182  0.04065811     0.12300
H100        H  0.37198760  0.50289552  0.97359481     0.12300
H101        H  0.49777491  0.50909398  0.04657158     0.25600
H102        H  0.50113819  0.48434634  0.99411583     0.25600
N103        N  0.99825199  0.50717883  0.07363074    -0.37200
N104        N  0.00071849  0.56058083  0.01608613    -0.57700
N105        N  0.00428515  0.49890403  0.96823338    -0.37200
N106        N  0.99852149  0.44546015  0.02618574    -0.57700
C107        C  0.99255089  0.53897065  0.09084788     0.26400
C108        C  0.99482198  0.47843891  0.09639058     0.26400
C109        C  0.00180615  0.52786299  0.94561563     0.26400
C110        C  0.99878271  0.46720851  0.95086713     0.26400
C111        C  0.00129243  0.58491566  0.04205339     0.35000
C112        C  0.00577390  0.58057466  0.98667029     0.35000
C113        C  0.00192414  0.42558428  0.05584546     0.35000
C114        C  0.00075684  0.42109672  0.00023775     0.35000
C115        C  0.98562115  0.53025677  0.12513348    -0.22500
C116        C  0.98716030  0.49224879  0.12864435    -0.22500
C117        C  0.99591822  0.51426283  0.91317257    -0.22500
C118        C  0.99414152  0.47617411  0.91646369    -0.22500
C119        C  0.00642100  0.62069614  0.02899245    -0.23500
C120        C  0.00917429  0.61796224  0.99397950    -0.23500
C121        C  0.00562117  0.38822290  0.04868516    -0.23500
C122        C  0.00471115  0.38536231  0.01357966    -0.23500
C123        C  0.99615765  0.57572741  0.07732278    -0.18900
C124        C  0.00001354  0.44024646  0.08938859    -0.18900
C125        C  0.99884115  0.43028588  0.96469863    -0.18900
C126        C  0.00444326  0.56625573  0.95314030    -0.18900
H127        H  0.98077025  0.54927198  0.14580721     0.14000
H128        H  0.98352846  0.47673595  0.15250531     0.14000
H129        H  0.99310599  0.53010343  0.88948851     0.14000
H130        H  0.99003595  0.45724822  0.89572695     0.14000
H131        H  0.00758404  0.64621313  0.04315011     0.12300
H132        H  0.01279190  0.64096473  0.97592561     0.12300
H133        H  0.00832584  0.36532820  0.06686477     0.12300
H134        H  0.00694421  0.35985610  0.99949027     0.12300
H135        H  0.00783086  0.50534475  0.04881203     0.25600
H136        H  0.01178268  0.50054313  0.99348163     0.25600
N137        N  0.50027680  0.93899132  0.01110460    -0.37200
N138        N  0.55503289  0.99543273  0.01418159    -0.57700
N139        N  0.50109910  0.05333568  0.01226257    -0.37200
N140        N  0.44636351  0.99668942  0.01159244    -0.57700
C141        C  0.52856498  0.91701844  0.01651953     0.26400
C142        C  0.47119441  0.91754421  0.01547690     0.26400
C143        C  0.52981315  0.07399067  0.01924276     0.26400
C144        C  0.47239237  0.07469512  0.01809805     0.26400
C145        C  0.57588762  0.96532162  0.01094350     0.35000
C146        C  0.57630452  0.02548993  0.01141689     0.35000
C147        C  0.42516372  0.96680756  0.00839110     0.35000
C148        C  0.42557542  0.02701814  0.00927515     0.35000
C149        C  0.51732627  0.88091003  0.02356475    -0.22500
C150        C  0.48122743  0.88121142  0.02281568    -0.22500
C151        C  0.51921191  0.10928897  0.02866779    -0.22500
C152        C  0.48307855  0.10969476  0.02800285    -0.22500
C153        C  0.61068896  0.97625158  0.00647389    -0.23500
C154        C  0.61097370  0.01437773  0.00678762    -0.23500
C155        C  0.39062472  0.97824491  0.00432275    -0.23500
C156        C  0.39089060  0.01633735  0.00490461    -0.23500
C157        C  0.56430962  0.92808180  0.01392179    -0.18900
C158        C  0.43589486  0.92932289  0.01175368    -0.18900
C159        C  0.43682215  0.06401631  0.01389328    -0.18900
C160        C  0.56537263  0.06258255  0.01597783    -0.18900
H161        H  0.53342467  0.85669392  0.02855193     0.14000
H162        H  0.46440210  0.85719662  0.02704922     0.14000
H163        H  0.53571381  0.13256403  0.03518821     0.14000
H164        H  0.46659085  0.13323500  0.03402984     0.14000
H165        H  0.63355167  0.95860772  0.00385388     0.12300
H166        H  0.63416327  0.03184539  0.00454316     0.12300
H167        H  0.36745981  0.96097768  0.00201854     0.12300
H168        H  0.36801644  0.03408217  0.00307753     0.12300
H169        H  0.50087272  0.96607228  0.00173944     0.25600
H170        H  0.50130186  0.02754292  0.00099852     0.25600
Zr171      Zr  0.74124635  0.75539074  0.69855499     2.17500
O172        O  0.71814783  0.73168669  0.64534388    -0.51900
O173        O  0.77153152  0.80732836  0.67089845    -0.75100
O174        O  0.68951974  0.79150753  0.68131256    -0.81900
O175        O  0.81886920  0.68843293  0.69377558    -0.83600
O176        O  0.66182524  0.81161956  0.72969480    -0.79300
O177        O  0.77987032  0.72011187  0.66061809    -0.90900
O178        O  0.80127462  0.83731768  0.71221740    -0.76900
O179        O  0.73711446  0.80386738  0.73905962    -0.86300
O180        O  0.79663288  0.75811643  0.72634088    -0.86000
O181        O  0.69351119  0.73830768  0.73695653    -0.72800
O182        O  0.74918090  0.69516072  0.72492693    -0.84900
Zr183      Zr  0.75343427  0.73077227  0.83317522     2.26400
Zr184      Zr  0.69106204  0.78626015  0.77875761     2.06300
Zr185      Zr  0.80401689  0.69878685  0.75368905     2.10000
Zr186      Zr  0.79200435  0.80633717  0.76683697     1.78800
O187        O  0.80895090  0.63167119  0.74819730    -0.93700
O188        O  0.76993913  0.86887569  0.77627728    -0.41500
O189        O  0.80112458  0.74739724  0.79464986    -0.78200
O190        O  0.74610442  0.79090185  0.80714523    -0.96900
O191        O  0.69821651  0.72712914  0.80581514    -0.90200
O192        O  0.75753227  0.68185379  0.79280540    -0.93000
C193        C  0.79176382  0.83314700  0.68122314     1.00700
C194        C  0.80626728  0.69823182  0.66464780     1.13700
C195        C  0.66499293  0.80932486  0.69711648     1.04500
O196        O  0.67706276  0.85165002  0.78576234    -0.95200
O197        O  0.67803526  0.80063500  0.83809514    -0.90900
O198        O  0.71317017  0.76414929  0.87121019    -0.84100
C199        C  0.68883472  0.78851922  0.86720201     1.11100
O200        O  0.67821872  0.65124577  0.71387614    -0.97100
Zr201      Zr  0.70261264  0.67940291  0.76468462     1.88900
O202        O  0.72077690  0.68114565  0.86104975    -0.73800
O203        O  0.63062020  0.76452780  0.78651701    -0.53000
O204        O  0.63851537  0.68044968  0.76725625    -0.97700
O205        O  0.71756209  0.61379110  0.75999194    -0.54900
O206        O  0.68957329  0.65170119  0.82034761    -0.74300
C207        C  0.69927328  0.65628050  0.85128567     0.98000
O208        O  0.78210472  0.75396669  0.88389997    -0.63100
O209        O  0.86740735  0.70742871  0.74750394    -0.57900
O210        O  0.80363051  0.69466921  0.85237477    -0.94600
O211        O  0.83433464  0.67792929  0.80447769    -0.93000
O212        O  0.85567348  0.81044753  0.75979808    -0.93400
O213        O  0.82280849  0.83573065  0.81335753    -0.92200
C214        C  0.82978066  0.67916573  0.83708576     1.16900
H215        H  0.81565629  0.76304778  0.71011643     0.32800
H216        H  0.74530950  0.80981174  0.82435096     0.43700
H217        H  0.76259421  0.65844400  0.80420029     0.37200
H218        H  0.67168861  0.73718040  0.72467374     0.33700
H219        H  0.78915522  0.88554774  0.76791600     0.25500
H220        H  0.62809887  0.75811734  0.81124291     0.31400
H221        H  0.63160121  0.65525342  0.77556945     0.37300
H222        H  0.86438934  0.78589774  0.76772511     0.31800
H223        H  0.87585896  0.68516151  0.73539822     0.30700
H224        H  0.79989116  0.62627951  0.72517668     0.32300
H225        H  0.72958790  0.60697011  0.78152426     0.31300
H226        H  0.82348772  0.81639025  0.83176557     0.35300
H227        H  0.77839115  0.78119191  0.88329980     0.28000
H228        H  0.71110672  0.75363650  0.63140257     0.32300
H229        H  0.66276974  0.63075839  0.72243845     0.35100
H230        H  0.87039524  0.72812023  0.73059850     0.27700
H231        H  0.76795998  0.74456656  0.90382268     0.40600
H232        H  0.69705055  0.86186599  0.79853929     0.30700
H233        H  0.75109489  0.87246654  0.75933142     0.38300
H234        H  0.73633406  0.61318487  0.74210604     0.30100
H235        H  0.61605914  0.78707061  0.78331515     0.30200
H236        H  0.69589702  0.71900058  0.65214671     0.30500
Zr237      Zr  0.30914335  0.75404089  0.78926761     2.17500
O238        O  0.37092411  0.74023582  0.80010070    -0.51900
O239        O  0.31832492  0.78736625  0.84209367    -0.75100
O240        O  0.35061937  0.79253303  0.75538702    -0.81900
O241        O  0.27925384  0.66347191  0.83269508    -0.83600
O242        O  0.32072333  0.82936133  0.71786490    -0.79300
O243        O  0.32806058  0.69470641  0.81344328    -0.90900
O244        O  0.26937552  0.82019952  0.85507299    -0.76900
O245        O  0.27487009  0.80887224  0.78176729    -0.86300
O246        O  0.25858435  0.74584614  0.82579591    -0.86000
O247        O  0.29505971  0.75653024  0.72933101    -0.72800
O248        O  0.28021401  0.69892431  0.77045564    -0.84900
Zr249      Zr  0.17885333  0.74911358  0.73851326     2.26400
Zr250      Zr  0.25917465  0.81086603  0.72239683     2.06300
Zr251      Zr  0.22869511  0.69201671  0.80576157     2.10000
Zr252      Zr  0.22393119  0.80001400  0.81738052     1.78800
O253        O  0.22335023  0.62677280  0.79091203    -0.93700
O254        O  0.22213642  0.86760639  0.81274246    -0.41500
O255        O  0.19345756  0.74638829  0.79813210    -0.78200
O256        O  0.20777742  0.80415825  0.75876922    -0.96900
O257        O  0.22971043  0.75661948  0.70245402    -0.90200
O258        O  0.21321629  0.69432038  0.74659574    -0.93000
C259        C  0.30106251  0.81027141  0.86064965     1.00700
C260        C  0.31268052  0.66765440  0.82961058     1.13700
C261        C  0.34924019  0.81741953  0.73134845     1.04500
O262        O  0.26350499  0.87780928  0.72947565    -0.95200
O263        O  0.20910711  0.84036006  0.69516100    -0.90900
O264        O  0.16015564  0.80644624  0.70935151    -0.84100
C265        C  0.17568897  0.83496720  0.69561202     1.11100
O266        O  0.32316549  0.67644092  0.70240787    -0.97100
Zr267      Zr  0.26470125  0.70252324  0.71156945     1.88900
O268        O  0.17128927  0.71482159  0.68537431    -0.73800
O269        O  0.27323440  0.81547907  0.66127090    -0.53000
O270        O  0.28769115  0.72499732  0.65623343    -0.97700
O271        O  0.26711622  0.63480643  0.71101903    -0.54900
O272        O  0.22023931  0.68154145  0.67378904    -0.74300
C273        C  0.18879662  0.69137752  0.66743286     0.98000
O274        O  0.11501083  0.75305764  0.73353377    -0.63100
O275        O  0.21342244  0.67921952  0.86580337    -0.57900
O276        O  0.13670563  0.71487077  0.77577979    -0.94600
O277        O  0.16668790  0.67912986  0.81412424    -0.93000
O278        O  0.19928028  0.77962688  0.87261285    -0.93400
O279        O  0.16737183  0.82628395  0.83405911    -0.92200
C280        C  0.13814078  0.69115089  0.80089411     1.16900
H281        H  0.26487486  0.74229475  0.84952816     0.32800
H282        H  0.19318881  0.82597953  0.75782932     0.43700
H283        H  0.20009984  0.67242710  0.74060679     0.37200
H284        H  0.31575703  0.75790880  0.71472701     0.33700
H285        H  0.22268440  0.87612768  0.83671009     0.25500
H286        H  0.27592221  0.84246474  0.65644460     0.31400
H287        H  0.26889908  0.74102464  0.64684516     0.37300
H288        H  0.19199085  0.75354690  0.86928313     0.31800
H289        H  0.21662113  0.65207175  0.86890755     0.30700
H290        H  0.24356762  0.61406111  0.80162473     0.32300
H291        H  0.24238709  0.62630913  0.70978301     0.31300
H292        H  0.15142516  0.81951683  0.81536354     0.35300
H293        H  0.10820765  0.77708303  0.74362152     0.28000
H294        H  0.38205960  0.76399708  0.80632786     0.32300
H295        H  0.32335388  0.66705268  0.67871598     0.35100
H296        H  0.23257300  0.69043241  0.87906475     0.27700
H297        H  0.11054449  0.75610201  0.70869635     0.40600
H298        H  0.24024787  0.88531228  0.73879125     0.30700
H299        H  0.24542543  0.87484134  0.80296317     0.38300
H300        H  0.27429510  0.62746901  0.73447998     0.30100
H301        H  0.29734918  0.80541215  0.65885036     0.30200
H302        H  0.38160518  0.73389889  0.77763712     0.30500
Zr303      Zr  0.75802185  0.26396768  0.83733086     2.17500
O304        O  0.77340811  0.25191677  0.89700911    -0.51900
O305        O  0.73118694  0.32025198  0.85833619    -0.75100
O306        O  0.81424048  0.29232673  0.85273755    -0.81900
O307        O  0.68077883  0.19503886  0.84761545    -0.83600
O308        O  0.84355533  0.30965979  0.80363341    -0.79300
O309        O  0.72178786  0.22667309  0.87738155    -0.90900
O310        O  0.70328043  0.34909201  0.81422056    -0.76900
O311        O  0.76381192  0.30967548  0.79241555    -0.86300
O312        O  0.70250041  0.26736517  0.80975443    -0.86000
O313        O  0.80487501  0.24157400  0.80105693    -0.72800
O314        O  0.74667866  0.20298418  0.81631233    -0.84900
Zr315      Zr  0.74344678  0.22903966  0.70524863     2.26400
Zr316      Zr  0.80956171  0.28713989  0.75548062     2.06300
Zr317      Zr  0.69169482  0.20725219  0.78734020     2.10000
Zr318      Zr  0.70878082  0.31154948  0.76401254     1.78800
O319        O  0.67656616  0.14226294  0.79817333    -0.93700
O320        O  0.72716256  0.37304119  0.74338695    -0.41500
O321        O  0.69659480  0.25174028  0.74109284    -0.78200
O322        O  0.75429972  0.29047519  0.72651039    -0.96900
O323        O  0.79881146  0.22651785  0.73339363    -0.90200
O324        O  0.73725990  0.18404797  0.75061647    -0.93000
C325        C  0.71302026  0.34680116  0.84544079     1.00700
C326        C  0.69531478  0.20452070  0.87550950     1.13700
C327        C  0.84062247  0.30727500  0.83652804     1.04500
O328        O  0.82011256  0.35338058  0.74616940    -0.95200
O329        O  0.82174617  0.29699206  0.69458211    -0.90900
O330        O  0.78068454  0.26506583  0.66487357    -0.84100
C331        C  0.80731642  0.28705370  0.66667256     1.11100
O332        O  0.82549025  0.16284803  0.82926642    -0.97100
Zr333      Zr  0.79240049  0.18178345  0.77880004     1.88900
O334        O  0.76948532  0.17134442  0.68507737    -0.73800
O335        O  0.87065671  0.26990642  0.74473456    -0.53000
O336        O  0.85515487  0.17481018  0.76670981    -0.97700
O337        O  0.77189309  0.12145066  0.80075512    -0.54900
O338        O  0.79968640  0.14449397  0.72861880    -0.74300
C339        C  0.78886794  0.14549078  0.69770779     0.98000
O340        O  0.72824270  0.24047484  0.64545235    -0.63100
O341        O  0.63235320  0.23057709  0.79741139    -0.57900
O342        O  0.68543442  0.20261501  0.69109774    -0.94600
O343        O  0.65685344  0.18516628  0.74048861    -0.93000
O344        O  0.64531874  0.31517966  0.77330569    -0.93400
O345        O  0.67840548  0.33538681  0.71372717    -0.92200
C346        C  0.65910860  0.18773605  0.70769217     1.16900
H347        H  0.68402854  0.27419434  0.82572799     0.32800
H348        H  0.75550176  0.30858334  0.70793875     0.43700
H349        H  0.73055660  0.16005986  0.74213004     0.37200
H350        H  0.82669207  0.23940463  0.81323069     0.33700
H351        H  0.70965761  0.39028160  0.75330480     0.25500
H352        H  0.88391579  0.29358676  0.74546230     0.31400
H353        H  0.85924566  0.18750963  0.74422765     0.37300
H354        H  0.64192036  0.31953340  0.79811937     0.31800
H355        H  0.62437259  0.23948968  0.77466824     0.30700
H356        H  0.65140478  0.14250318  0.80520696     0.32300
H357        H  0.74910311  0.11745513  0.78947569     0.31300
H358        H  0.68514626  0.31823299  0.69521871     0.35300
H359        H  0.72183378  0.21597291  0.63625937     0.28000
H360        H  0.77800415  0.27651547  0.90695233     0.32300
H361        H  0.83593119  0.13846525  0.82373844     0.35100
H362        H  0.61797972  0.20807992  0.80249672     0.27700
H363        H  0.70603605  0.25476674  0.64615060     0.40600
H364        H  0.80559439  0.36040053  0.72623291     0.30700
H365        H  0.74910704  0.37814610  0.75575520     0.38300
H366        H  0.76531958  0.12557238  0.82505476     0.30100
H367        H  0.87771027  0.25598830  0.76566401     0.30200
H368        H  0.79651913  0.23931350  0.89626853     0.30500
Zr369      Zr  0.25596381  0.23227910  0.70814785     2.17500
O370        O  0.27441226  0.24318313  0.64851353    -0.51900
O371        O  0.22243920  0.17825394  0.68979476    -0.75100
O372        O  0.31214773  0.20165860  0.69230865    -0.81900
O373        O  0.18248147  0.30614054  0.69967064    -0.83600
O374        O  0.34188428  0.18704044  0.74091732    -0.79300
O375        O  0.21931313  0.26892239  0.66901751    -0.90900
O376        O  0.19259808  0.15536239  0.73667146    -0.76900
O377        O  0.26131006  0.18864175  0.75464785    -0.86300
O378        O  0.20143435  0.23319047  0.73964673    -0.86000
O379        O  0.30360592  0.25512038  0.74178763    -0.72800
O380        O  0.24729635  0.29488740  0.72712417    -0.84900
Zr381      Zr  0.24694131  0.27348910  0.84099306     2.26400
Zr382      Zr  0.30816335  0.21140036  0.78883451     2.06300
Zr383      Zr  0.19369414  0.29479713  0.76000890     2.10000
Zr384      Zr  0.20720669  0.19042938  0.78636389     1.78800
O385        O  0.18623868  0.36176695  0.75348267    -0.93700
O386        O  0.22553134  0.12748118  0.80151795    -0.41500
O387        O  0.19880856  0.25172435  0.80740143    -0.78200
O388        O  0.25401909  0.21083791  0.82123696    -0.96900
O389        O  0.30072164  0.27351649  0.80846752    -0.90200
O390        O  0.24037429  0.31737138  0.79458045    -0.93000
C391        C  0.20045306  0.15567675  0.70462283     1.00700
C392        C  0.19482481  0.29344001  0.67142116     1.13700
C393        C  0.33885002  0.18797393  0.70820396     1.04500
O394        O  0.31282066  0.14480893  0.79996574    -0.95200
O395        O  0.32218820  0.20242364  0.84887951    -0.90900
O396        O  0.28179125  0.23425446  0.88044809    -0.84100
C397        C  0.30816514  0.21192411  0.87752745     1.11100
O398        O  0.31597653  0.34047367  0.70648460    -0.97100
Zr399      Zr  0.29382370  0.31651144  0.76170974     1.88900
O400        O  0.28276529  0.32705815  0.85741736    -0.73800
O401        O  0.37018950  0.22494264  0.79758951    -0.53000
O402        O  0.35771367  0.31948182  0.75695990    -0.97700
O403        O  0.27393206  0.37996067  0.75024821    -0.54900
O404        O  0.31315161  0.34919001  0.81064699    -0.74300
C405        C  0.30543269  0.34899372  0.84262527     0.98000
O406        O  0.23299747  0.27128713  0.90238646    -0.63100
O407        O  0.13248061  0.28056084  0.74775254    -0.57900
O408        O  0.18799536  0.29834232  0.85669985    -0.94600
O409        O  0.15751789  0.31227463  0.80839242    -0.93000
O410        O  0.14316085  0.19250715  0.78793244    -0.93400
O411        O  0.18060670  0.16479033  0.83901061    -0.92200
C412        C  0.16049998  0.31043827  0.84099999     1.16900
H413        H  0.18188177  0.22687839  0.72535766     0.32800
H414        H  0.25481251  0.19291710  0.83993633     0.43700
H415        H  0.23499789  0.34167285  0.80326123     0.37200
H416        H  0.32527122  0.25629395  0.72856077     0.33700
H417        H  0.20529044  0.11155727  0.79569237     0.25500
H418        H  0.38136367  0.20029750  0.80059796     0.31400
H419        H  0.36596292  0.30010202  0.77324325     0.37300
H420        H  0.13561209  0.16630342  0.78588686     0.31800
H421        H  0.12374374  0.26582612  0.76787502     0.30700
H422        H  0.16080706  0.36603920  0.75762543     0.32300
H423        H  0.26336895  0.38876967  0.77196062     0.31300
H424        H  0.18722137  0.18246808  0.85693939     0.35300
H425        H  0.22704714  0.29704374  0.90875451     0.28000
H426        H  0.27776194  0.21830330  0.63859989     0.32300
H427        H  0.32811943  0.36412121  0.71134987     0.35100
H428        H  0.12004180  0.30462346  0.74926300     0.27700
H429        H  0.21073877  0.25704911  0.90502594     0.40600
H430        H  0.33676844  0.14126724  0.80906767     0.30700
H431        H  0.24392391  0.12137712  0.78427167     0.38300
H432        H  0.25384809  0.37729182  0.73464885     0.30100
H433        H  0.37928617  0.23439010  0.77511613     0.30200
H434        H  0.29827493  0.25422091  0.64930477     0.30500
Zr435      Zr  0.67897171  0.74711077  0.25274701     2.17500
O436        O  0.61766498  0.72642389  0.25389418    -0.51900
O437        O  0.66260091  0.78022360  0.19953261    -0.75100
O438        O  0.63916160  0.78348798  0.29015483    -0.81900
O439        O  0.71127119  0.65809292  0.20955477    -0.83600
O440        O  0.67134689  0.81956122  0.32519059    -0.79300
O441        O  0.66189113  0.68853771  0.22711464    -0.90900
O442        O  0.71118574  0.80994457  0.17787142    -0.76900
O443        O  0.71097142  0.80387912  0.25637545    -0.86300
O444        O  0.72675141  0.74314030  0.21227952    -0.86000
O445        O  0.69966070  0.74776444  0.31078887    -0.72800
O446        O  0.71381951  0.69396750  0.26893291    -0.84900
Zr447      Zr  0.81540419  0.74944537  0.28997776     2.26400
Zr448      Zr  0.73252860  0.80443930  0.31376304     2.06300
Zr449      Zr  0.76220172  0.69135917  0.22906949     2.10000
Zr450      Zr  0.75889090  0.79959141  0.21641817     1.78800
O451        O  0.77346337  0.62583781  0.24152420    -0.93700
O452        O  0.74992137  0.86657466  0.21717444    -0.41500
O453        O  0.79507751  0.74790222  0.23211442    -0.78200
O454        O  0.78058239  0.80261068  0.27310236    -0.96900
O455        O  0.76769293  0.75219539  0.33049828    -0.90200
O456        O  0.78396677  0.69228403  0.28624225    -0.93000
C457        C  0.67897708  0.79990117  0.17632742     1.00700
C458        C  0.67778485  0.66143903  0.21252280     1.13700
C459        C  0.64198510  0.80743905  0.31413490     1.04500
O460        O  0.72335718  0.87089941  0.30531461    -0.95200
O461        O  0.78261300  0.83732858  0.33565465    -0.90900
O462        O  0.83194270  0.80535172  0.32071222    -0.84100
C463        C  0.81609359  0.83299033  0.33454163     1.11100
O464        O  0.67979626  0.66720273  0.34392965    -0.97100
Zr465      Zr  0.73562295  0.69563587  0.32587722     1.88900
O466        O  0.83294595  0.71093283  0.33921542    -0.73800
O467        O  0.72420671  0.80426924  0.37581846    -0.53000
O468        O  0.71897822  0.70703947  0.38534087    -0.97700
O469        O  0.73713409  0.62831256  0.31988832    -0.54900
O470        O  0.78515631  0.68011479  0.36116780    -0.74300
C471        C  0.81777664  0.68905944  0.36139202     0.98000
O472        O  0.87655097  0.76994133  0.29282533    -0.63100
O473        O  0.77073220  0.68306301  0.16763820    -0.57900
O474        O  0.85542594  0.71859672  0.24861427    -0.94600
O475        O  0.82320651  0.68454963  0.21201431    -0.93000
O476        O  0.78320736  0.78662981  0.15987970    -0.93400
O477        O  0.81187198  0.83461458  0.20077344    -0.92200
C478        C  0.85251918  0.69696009  0.22280614     1.16900
H479        H  0.71843344  0.73922076  0.18940340     0.32800
H480        H  0.79420123  0.82526070  0.27301923     0.43700
H481        H  0.79909703  0.67130179  0.29080992     0.37200
H482        H  0.68032381  0.74745301  0.32713989     0.33700
H483        H  0.72407015  0.86983028  0.21845178     0.25500
H484        H  0.71420259  0.82898130  0.38084016     0.31400
H485        H  0.73717979  0.72424510  0.39364169     0.37300
H486        H  0.78213908  0.75924677  0.15847514     0.31800
H487        H  0.76688076  0.65620178  0.16411440     0.30700
H488        H  0.79923796  0.62274058  0.23893574     0.32300
H489        H  0.76148983  0.62247580  0.31249990     0.31300
H490        H  0.83084712  0.82209509  0.21366619     0.35300
H491        H  0.89039939  0.74729736  0.29799220     0.28000
H492        H  0.60336782  0.74841738  0.24760455     0.32300
H493        H  0.68574542  0.64807530  0.36148961     0.35100
H494        H  0.75051017  0.69543931  0.15667592     0.27700
H495        H  0.88362545  0.77754553  0.26914868     0.40600
H496        H  0.72158296  0.88082465  0.32877002     0.30700
H497        H  0.75822776  0.87419861  0.23990289     0.38300
H498        H  0.72276344  0.62342431  0.29952066     0.30100
H499        H  0.70456770  0.78665667  0.38049961     0.30200
H500        H  0.61162916  0.72074189  0.27824875     0.30500
Zr501      Zr  0.24831341  0.77003574  0.33317308     2.17500
O502        O  0.25933483  0.76128001  0.39426872    -0.51900
O503        O  0.21820722  0.82597103  0.35156387    -0.75100
O504        O  0.30430216  0.79735565  0.35130057    -0.81900
O505        O  0.17111667  0.69962313  0.33787630    -0.83600
O506        O  0.33743583  0.81224239  0.30381600    -0.79300
O507        O  0.21069425  0.73011805  0.37035182    -0.90900
O508        O  0.19483703  0.85500728  0.30498768    -0.76900
O509        O  0.25885428  0.81467317  0.28798249    -0.86300
O510        O  0.19539351  0.77395865  0.30110993    -0.86000
O511        O  0.29723987  0.74611039  0.30038950    -0.72800
O512        O  0.23804691  0.70883341  0.31223366    -0.84900
Zr513      Zr  0.24449598  0.73439019  0.20021094     2.26400
Zr514      Zr  0.30663703  0.79046162  0.25434758     2.06300
Zr515      Zr  0.18619371  0.71337089  0.27876535     2.10000
Zr516      Zr  0.20632145  0.81773502  0.25559125     1.78800
O517        O  0.17552671  0.64698737  0.28638240    -0.93700
O518        O  0.22779583  0.87952867  0.23901592    -0.41500
O519        O  0.19570132  0.75763370  0.23305636    -0.78200
O520        O  0.25417725  0.79587444  0.22128807    -0.96900
O521        O  0.29707816  0.72985876  0.23251606    -0.90200
O522        O  0.23370351  0.68968545  0.24512433    -0.93000
C523        C  0.20105680  0.85242146  0.33707052     1.00700
C524        C  0.18449214  0.70783551  0.36662902     1.13700
C525        C  0.33211799  0.81091622  0.33637028     1.04500
O526        O  0.32300692  0.85533517  0.24505486    -0.95200
O527        O  0.32353457  0.80158319  0.19466254    -0.90900
O528        O  0.28594600  0.76834526  0.16235795    -0.84100
C529        C  0.31185889  0.79093630  0.16576482     1.11100
O530        O  0.30727387  0.66317696  0.33306417    -0.97100
Zr531      Zr  0.28567019  0.68617004  0.27810215     1.88900
O532        O  0.27503170  0.67890014  0.18149418    -0.73800
O533        O  0.36671758  0.76750561  0.24936793    -0.53000
O534        O  0.34908579  0.67630799  0.27695772    -0.97700
O535        O  0.26171304  0.62441737  0.29088462    -0.54900
O536        O  0.30026486  0.65159571  0.22811594    -0.74300
C537        C  0.29351792  0.65363259  0.19618870     0.98000
O538        O  0.22233781  0.74549538  0.14254823    -0.63100
O539        O  0.12421689  0.72991203  0.28411922    -0.57900
O540        O  0.19000808  0.70526336  0.18157522    -0.94600
O541        O  0.15591435  0.69272107  0.22898268    -0.93000
O542        O  0.14238842  0.82188786  0.25729376    -0.93400
O543        O  0.18114311  0.84167052  0.20253617    -0.92200
C544        C  0.16191364  0.69258930  0.19659943     1.16900
H545        H  0.17563627  0.78118002  0.31537210     0.32800
H546        H  0.25724239  0.81376580  0.20270148     0.43700
H547        H  0.22757587  0.66586827  0.23590707     0.37200
H548        H  0.31794022  0.74348484  0.31421412     0.33700
H549        H  0.20704907  0.89592325  0.24139324     0.25500
H550        H  0.36728464  0.75292794  0.22811464     0.31400
H551        H  0.35927476  0.69944696  0.28588249     0.37300
H552        H  0.13416348  0.79844615  0.24723081     0.31800
H553        H  0.11198279  0.70610940  0.28941628     0.30700
H554        H  0.15043702  0.64490525  0.29345723     0.32300
H555        H  0.25303424  0.61515921  0.26884166     0.31300
H556        H  0.19404879  0.82864833  0.18409674     0.35300
H557        H  0.22314540  0.77277429  0.13873131     0.28000
H558        H  0.26402415  0.78632833  0.40322279     0.32300
H559        H  0.31713985  0.63827523  0.32857321     0.35100
H560        H  0.12221883  0.74401638  0.30559066     0.27700
H561        H  0.24030943  0.73538217  0.12661653     0.40600
H562        H  0.30524047  0.86942300  0.25825551     0.30700
H563        H  0.24326007  0.88678571  0.25792693     0.38300
H564        H  0.24016578  0.62900563  0.30467967     0.30100
H565        H  0.38106144  0.78988611  0.24372435     0.30200
H566        H  0.28199917  0.74789701  0.39572387     0.30500
Zr567      Zr  0.68447537  0.24473086  0.24879598     2.17500
O568        O  0.62115423  0.25459650  0.25461310    -0.51900
O569        O  0.66638717  0.20983936  0.19939393    -0.75100
O570        O  0.66463162  0.30280583  0.22111166    -0.81900
O571        O  0.68083399  0.16600712  0.31715342    -0.83600
O572        O  0.71295208  0.33732681  0.20642932    -0.79300
O573        O  0.64728227  0.20850539  0.28870450    -0.90900
O574        O  0.71458886  0.18288620  0.17540820    -0.76900
O575        O  0.73081006  0.25421743  0.20750425    -0.86300
O576        O  0.71837377  0.18889496  0.24823829    -0.86000
O577        O  0.71657277  0.29743423  0.26905787    -0.72800
O578        O  0.70585722  0.23596310  0.30582273    -0.84900
Zr579      Zr  0.81997572  0.24378694  0.28510034     2.26400
Zr580      Zr  0.76389924  0.30550132  0.22807211     2.06300
Zr581      Zr  0.74116647  0.18123422  0.30452692     2.10000
Zr582      Zr  0.76544112  0.19916616  0.20823237     1.78800
O583        O  0.73225337  0.16539851  0.36503877    -0.93700
O584        O  0.77982948  0.22040668  0.14992586    -0.41500
O585        O  0.78850946  0.19091208  0.26454260    -0.78200
O586        O  0.79932425  0.25064245  0.22730210    -0.96900
O587        O  0.78535324  0.29879207  0.28517195    -0.90200
O588        O  0.77337142  0.23275096  0.32569836    -0.93000
C589        C  0.68156181  0.18979972  0.17676548     1.00700
C590        C  0.65142426  0.18104429  0.30981657     1.13700
C591        C  0.67966391  0.33184669  0.20770062     1.04500
O592        O  0.77291753  0.31309824  0.16635844    -0.95200
O593        O  0.82433055  0.32449798  0.21974433    -0.90900
O594        O  0.85808058  0.28844768  0.25468795    -0.84100
C595        C  0.85387536  0.31421275  0.23192578     1.11100
O596        O  0.68133365  0.31118445  0.34395754    -0.97100
Zr597      Zr  0.73860370  0.28765199  0.32546764     1.88900
O598        O  0.83729681  0.27665556  0.33645856    -0.73800
O599        O  0.77065387  0.37158508  0.23867834    -0.53000
O600        O  0.73881620  0.35526727  0.32712122    -0.97700
O601        O  0.72144324  0.26506001  0.38275759    -0.54900
O602        O  0.78845109  0.30286227  0.35993273    -0.74300
C603        C  0.82148894  0.29599890  0.35936572     0.98000
O604        O  0.87993673  0.22151870  0.27585760    -0.63100
O605        O  0.73475657  0.11707445  0.28680707    -0.57900
O606        O  0.84097970  0.18713963  0.31289017    -0.94600
O607        O  0.79330498  0.15022130  0.32420056    -0.93000
O608        O  0.76716449  0.13153165  0.20817443    -0.93400
O609        O  0.82063099  0.17420213  0.18600441    -0.92200
C610        C  0.82635342  0.15713984  0.32449896     1.16900
H611        H  0.70424506  0.16758573  0.24259070     0.32800
H612        H  0.81903397  0.25355623  0.21129746     0.43700
H613        H  0.78226762  0.22701495  0.34824792     0.37200
H614        H  0.70206278  0.31935378  0.27021414     0.33700
H615        H  0.77665145  0.19823359  0.13567483     0.25500
H616        H  0.76514171  0.38427572  0.21666818     0.31400
H617        H  0.73800604  0.36112234  0.35181122     0.37300
H618        H  0.76463860  0.12498062  0.18380691     0.31800
H619        H  0.75819307  0.11020687  0.27749269     0.30700
H620        H  0.72926652  0.13805605  0.36582414     0.32300
H621        H  0.74375592  0.26093409  0.39497896     0.31300
H622        H  0.83746100  0.17735679  0.20483906     0.35300
H623        H  0.88434869  0.22319746  0.25077207     0.28000
H624        H  0.61248085  0.25880756  0.23105378     0.32300
H625        H  0.68528147  0.32388142  0.36584561     0.35100
H626        H  0.73230142  0.10247191  0.30851263     0.27700
H627        H  0.89562003  0.24035203  0.28577833     0.40600
H628        H  0.79410936  0.29821275  0.16103328     0.30700
H629        H  0.76016485  0.23698283  0.14347012     0.38300
H630        H  0.71206099  0.23977265  0.37920915     0.30100
H631        H  0.75074110  0.37772918  0.25425036     0.30200
H632        H  0.61836070  0.27872382  0.26607006     0.30500
N633        N  0.00951385  0.99423276  0.46740409    -0.37200
N634        N  0.05277024  0.00770915  0.52676613    -0.57700
N635        N  0.98990579  0.01015491  0.57027100    -0.37200
N636        N  0.94672538  0.99815895  0.51041006    -0.57700
C637        C  0.04108115  0.99902209  0.45154937     0.26400
C638        C  0.98499856  0.99584230  0.44273685     0.26400
C639        C  0.01485655  0.00722930  0.59453517     0.26400
C640        C  0.95853634  0.00253138  0.58586316     0.26400
C641        C  0.07875139  0.00628421  0.50287867     0.35000
C642        C  0.06858184  0.01350891  0.55684135     0.35000
C643        C  0.93084880  0.99551844  0.47991814     0.35000
C644        C  0.92070867  0.00083544  0.53410208     0.35000
C645        C  0.03662096  0.00238181  0.41636284    -0.22500
C646        C  0.00126335  0.00029764  0.41080455    -0.22500
C647        C  0.99900061  0.99889658  0.62607988    -0.22500
C648        C  0.96347971  0.99594478  0.62060613    -0.22500
C649        C  0.11120596  0.01164112  0.51766041    -0.23500
C650        C  0.10480808  0.01626385  0.55182678    -0.23500
C651        C  0.89461805  0.99655394  0.48427586    -0.23500
C652        C  0.88815089  0.00015515  0.51855556    -0.23500
C653        C  0.07388245  0.00159644  0.46764525    -0.18900
C654        C  0.94829096  0.99408990  0.44788157    -0.18900
C655        C  0.92551062  0.00124870  0.56976571    -0.18900
C656        C  0.05153400  0.01186408  0.58922285    -0.18900
H657        H  0.05666814  0.00684708  0.39666184     0.14000
H658        H  0.98894940  0.00263183  0.38603398     0.14000
H659        H  0.01171833  0.99493432  0.65050105     0.14000
H660        H  0.94360455  0.98924736  0.63998192     0.14000
H661        H  0.13688126  0.01196482  0.50518052     0.12300
H662        H  0.12485642  0.01993754  0.57082244     0.12300
H663        H  0.87484448  0.99519378  0.46477444     0.12300
H664        H  0.86234495  0.00172214  0.53062319     0.12300
H665        H  0.00527458  0.98792031  0.49318191     0.25600
H666        H  0.99371097  0.01950242  0.54512026     0.25600
C667        C  0.14510538  0.97852111  0.40690418     0.79600
N668        N  0.15346753  0.01291109  0.39410735    -0.78700
C669        C  0.13765179  0.04331302  0.40746640     0.82100
N670        N  0.11352579  0.03939652  0.43299804    -0.78600
C671        C  0.10486430  0.00527454  0.44532373     0.82200
N672        N  0.12047567  0.97477073  0.43231364    -0.80300
Zr673      Zr  0.32181417  0.24631743  0.24907798     2.17500
O674        O  0.38403491  0.26183917  0.24130947    -0.51900
O675        O  0.33688410  0.20496001  0.20222063    -0.75100
O676        O  0.35946346  0.21094528  0.28826503    -0.81900
O677        O  0.29441036  0.33318322  0.19883447    -0.83600
O678        O  0.32464277  0.17689447  0.32497133    -0.79300
O679        O  0.34225047  0.30331806  0.22026991    -0.90900
O680        O  0.28788861  0.17496461  0.18500011    -0.76900
O681        O  0.28669296  0.19231486  0.25943505    -0.86300
O682        O  0.27488545  0.24921797  0.20914554    -0.86000
O683        O  0.30239165  0.25165405  0.30782125    -0.72800
O684        O  0.28997044  0.30230804  0.26069673    -0.84900
Zr685      Zr  0.18650030  0.25517755  0.29045703     2.26400
Zr686      Zr  0.26569878  0.19823095  0.31711010     2.06300
Zr687      Zr  0.24223704  0.30397700  0.22183449     2.10000
Zr688      Zr  0.23933046  0.19572897  0.22027264     1.78800
O689        O  0.23452371  0.37102842  0.22429743    -0.93700
O690        O  0.24006982  0.12837722  0.22769274    -0.41500
O691        O  0.20598666  0.25053342  0.23179182    -0.78200
O692        O  0.21770258  0.19858281  0.27802748    -0.96900
O693        O  0.23373296  0.25332270  0.32975905    -0.90200
O694        O  0.22139290  0.30928772  0.27966731    -0.93000
C695        C  0.32075903  0.18257365  0.18259457     1.00700
C696        C  0.32752330  0.32959419  0.20304161     1.13700
C697        C  0.35463967  0.18716572  0.31296957     1.04500
O698        O  0.26484915  0.13060462  0.31799182    -0.95200
O699        O  0.21575308  0.17499620  0.34845976    -0.90900
O700        O  0.16690033  0.20376247  0.32839264    -0.84100
C701        C  0.18248980  0.17920628  0.34708018     1.11100
O702        O  0.32563076  0.33734370  0.32709257    -0.97100
Zr703      Zr  0.26920628  0.30673154  0.31843926     1.88900
O704        O  0.17226971  0.29461770  0.33868478    -0.73800
O705        O  0.27909538  0.20093205  0.37792093    -0.53000
O706        O  0.29053497  0.29581503  0.37634307    -0.97700
O707        O  0.26556855  0.37397816  0.30970831    -0.54900
O708        O  0.22218749  0.32100392  0.35811981    -0.74300
C709        C  0.18920564  0.31390457  0.36028169     0.98000
O710        O  0.12318992  0.24462927  0.28760265    -0.63100
O711        O  0.23672590  0.30316311  0.15970961    -0.57900
O712        O  0.14831952  0.29140255  0.25237030    -0.94600
O713        O  0.18198277  0.31884342  0.21014462    -0.93000
O714        O  0.22072222  0.20843412  0.16172474    -0.93400
O715        O  0.18317729  0.16621505  0.20857351    -0.92200
C716        C  0.15243849  0.31173506  0.22503459     1.16900
H717        H  0.28368374  0.25049206  0.18576775     0.32800
H718        H  0.20300139  0.17690513  0.28171535     0.43700
H719        H  0.20735786  0.33138574  0.28241875     0.37200
H720        H  0.32181061  0.25167422  0.32343000     0.33700
H721        H  0.23889631  0.11872080  0.20414748     0.25500
H722        H  0.28361338  0.17482464  0.38500448     0.31400
H723        H  0.27347980  0.27811555  0.38712087     0.37300
H724        H  0.24235921  0.21592365  0.14884990     0.31800
H725        H  0.21698955  0.28588260  0.15569974     0.30700
H726        H  0.23341771  0.37950656  0.20002746     0.32300
H727        H  0.26925744  0.38449024  0.33262015     0.31300
H728        H  0.16639018  0.17715349  0.22521162     0.35300
H729        H  0.12051080  0.21927190  0.27866377     0.28000
H730        H  0.39610735  0.23804343  0.23678243     0.32300
H731        H  0.32277786  0.35205285  0.34812806     0.35100
H732        H  0.22742610  0.32798773  0.15335599     0.27700
H733        H  0.11436960  0.24308871  0.31162735     0.40600
H734        H  0.27634929  0.12359870  0.29612130     0.30700
H735        H  0.26425163  0.12253051  0.23506216     0.38300
H736        H  0.24059100  0.37927828  0.30487377     0.30100
H737        H  0.30235288  0.21329306  0.37892579     0.30200
H738        H  0.39221331  0.26936304  0.26412205     0.30500
C739        C  0.03399874  0.38352207  0.16247362     0.79600
N740        N  0.03298114  0.40273362  0.13199161    -0.78700
C741        C  0.00140959  0.41414688  0.11937533     0.82100
N742        N  0.97116031  0.40541086  0.13693193    -0.78600
C743        C  0.97244350  0.38653796  0.16739743     0.82200
N744        N  0.00377049  0.37594331  0.17996112    -0.80300
C745        C  0.36932289  0.13578064  0.99455876     0.79600
N746        N  0.35782516  0.14381503  0.02670228    -0.78700
C747        C  0.37215916  0.12676186  0.05452123     0.82100
N748        N  0.39780833  0.10110547  0.05010991    -0.78600
C749        C  0.40935340  0.09268691  0.01808146     0.82200
N750        N  0.39526899  0.11019061  0.99026090    -0.80300
C751        C  0.47128506  0.12781594  0.38725781     0.79600
N752        N  0.50263094  0.13789509  0.37302509    -0.78700
C753        C  0.53290839  0.12395173  0.38541629     0.82100
N754        N  0.53211122  0.09957294  0.41234136    -0.78600
C755        C  0.50071412  0.08951308  0.42695337     0.82200
N756        N  0.47020660  0.10347605  0.41433955    -0.80300
C757        C  0.88905739  0.96214842  0.38083647     0.79600
N758        N  0.91155658  0.96178333  0.40736521    -0.78700
C759        C  0.92645234  0.99389882  0.41738408     0.82100
N760        N  0.91827252  0.02648754  0.40156097    -0.78600
C761        C  0.89550722  0.02703573  0.37526508     0.82200
N762        N  0.88093874  0.99479450  0.36480943    -0.80300
C763        C  0.62360602  0.13128981  0.05558400     0.79600
N764        N  0.59959642  0.10385609  0.05171751    -0.78700
C765        C  0.59287571  0.09099258  0.02004525     0.82100
N766        N  0.61010348  0.10571880  0.99214140    -0.78600
C767        C  0.63426089  0.13313142  0.99598310     0.82200
N768        N  0.64090168  0.14587888  0.02768984    -0.80300
C769        C  0.61016688  0.53129791  0.16163677     0.79600
N770        N  0.58822506  0.53164517  0.13464404    -0.78700
C771        C  0.57904742  0.49944845  0.11983808     0.82100
N772        N  0.59123274  0.46660646  0.13238881    -0.78600
C773        C  0.61257029  0.46587749  0.15992221     0.82200
N774        N  0.62219518  0.49833126  0.17445343    -0.80300
C775        C  0.87953292  0.35117834  0.48346156     0.79600
N776        N  0.90266873  0.37973211  0.48631467    -0.78700
C777        C  0.90966989  0.39363408  0.51757905     0.82100
N778        N  0.89354931  0.37886848  0.54609453    -0.78600
C779        C  0.87050424  0.35021491  0.54334353     0.82200
N780        N  0.86360654  0.33637322  0.51205598    -0.80300
C781        C  0.35868397  0.52739772  0.13677021     0.79600
N782        N  0.35694875  0.49478365  0.15493250    -0.78700
C783        C  0.37666512  0.46541999  0.14487874     0.82100
N784        N  0.39910617  0.46936984  0.11782850    -0.78600
C785        C  0.40029255  0.50155719  0.09939993     0.82200
N786        N  0.37962914  0.53027785  0.10843582    -0.80300
C787        C  0.03479140  0.64312898  0.13595213     0.79600
N788        N  0.03106939  0.61824497  0.11072686    -0.78700
C789        C  0.99863920  0.60610633  0.10221179     0.82100
N790        N  0.96965216  0.61871393  0.11945558    -0.78600
C791        C  0.97332227  0.64375411  0.14494475     0.82200
N792        N  0.00598298  0.65575084  0.15308089    -0.80300
C793        C  0.36958656  0.86238697  0.98211788     0.79600
N794        N  0.39273483  0.89111727  0.98253712    -0.78700
C795        C  0.40834344  0.90039736  0.01220235     0.82100
N796        N  0.39924972  0.88234463  0.04201120    -0.78600
C797        C  0.37530344  0.85427779  0.04192500     0.82200
N798        N  0.36163076  0.84370218  0.01180553    -0.80300
C799        C  0.45885165  0.85982038  0.40007651     0.79600
N800        N  0.46226147  0.88371234  0.42630956    -0.78700
C801        C  0.49459863  0.89616137  0.43515888     0.82100
N802        N  0.52365959  0.88510234  0.41700957    -0.78600
C803        C  0.52036573  0.86085113  0.39081134     0.82200
N804        N  0.48789838  0.84840070  0.38253120    -0.80300
C805        C  0.12410755  0.63237125  0.54671347     0.79600
N806        N  0.10328711  0.60174619  0.54681951    -0.78700
C807        C  0.09080961  0.58878421  0.51693665     0.82100
N808        N  0.10036919  0.60564498  0.48658747    -0.78600
C809        C  0.12163315  0.63613751  0.48642572     0.82200
N810        N  0.13250010  0.64981964  0.51654450    -0.80300
C811        C  0.62068361  0.85231962  0.04709778     0.79600
N812        N  0.62884678  0.83525668  0.01729303    -0.78700
C813        C  0.62095192  0.85086226  0.98644529     0.82100
N814        N  0.60116185  0.88211638  0.98526487    -0.78600
C815        C  0.59104840  0.89850371  0.01484202     0.82200
N816        N  0.60186657  0.88435855  0.04547825    -0.80300
C817        C  0.13204684  0.35432228  0.54888526     0.79600
N818        N  0.10608906  0.38014242  0.55175737    -0.78700
C819        C  0.09166873  0.39531765  0.52302401     0.82100
N820        N  0.10359407  0.38517285  0.49167724    -0.78600
C821        C  0.12951367  0.35967413  0.48880842     0.82200
N822        N  0.14362598  0.34409508  0.51737636    -0.80300
C823        C  0.96605603  0.35956694  0.90424893     0.79600
N824        N  0.99708661  0.34663448  0.89103055    -0.78700
C825        C  0.02852109  0.35975759  0.90222649     0.82100
N826        N  0.02854643  0.38599093  0.92682961    -0.78600
C827        C  0.99789534  0.39927376  0.94007939     0.82200
N828        N  0.96666585  0.38610265  0.92867077    -0.80300
C829        C  0.12146603  0.03595228  0.64864140     0.79600
N830        N  0.09323122  0.03962870  0.62804116    -0.78700
C831        C  0.07454481  0.00930239  0.61898860     0.82100
N832        N  0.08458209  0.97506989  0.63002582    -0.78600
C833        C  0.11282454  0.97107874  0.65040464     0.82200
N834        N  0.13124862  0.00152748  0.65981744    -0.80300
C835        C  0.53114174  0.13543845  0.64377862     0.79600
N836        N  0.49993458  0.14858884  0.65637914    -0.78700
C837        C  0.46871201  0.13633093  0.64389514     0.82100
N838        N  0.46906261  0.11106307  0.61842310    -0.78600
C839        C  0.49997753  0.09772596  0.60572037     0.82200
N840        N  0.53095869  0.10975624  0.61863030    -0.80300
C841        C  0.37669803  0.47597087  0.89360010     0.79600
N842        N  0.40450208  0.47528063  0.91480984    -0.78700
C843        C  0.42099338  0.50722505  0.92299647     0.82100
N844        N  0.40938652  0.54025245  0.91010580    -0.78600
C845        C  0.38184596  0.54103388  0.88835783     0.82200
N846        N  0.36543990  0.50887482  0.88033716    -0.80300
C847        C  0.84615323  0.02389283  0.62057786     0.79600
N848        N  0.87879601  0.02673150  0.60610543    -0.78700
C849        C  0.89364820  0.99676184  0.59120504     0.82100
N850        N  0.87637520  0.96373246  0.59168699    -0.78600
C851        C  0.84490122  0.96009808  0.60820368     0.82200
N852        N  0.82921907  0.99068766  0.62099640    -0.80300
C853        C  0.95856471  0.62807396  0.89219004     0.79600
N854        N  0.96514396  0.60331176  0.91778860    -0.78700
C855        C  0.99866228  0.59336892  0.92474864     0.82100
N856        N  0.02587323  0.60828550  0.90575431    -0.78600
C857        C  0.01928056  0.63333456  0.87988197     0.82200
N858        N  0.98554981  0.64303455  0.87329451    -0.80300
C859        C  0.53605901  0.86880715  0.64878079     0.79600
N860        N  0.50778956  0.85782064  0.66829212    -0.78700
C861        C  0.47505062  0.87027751  0.66054769     0.82100
N862        N  0.47085196  0.89381960  0.63322116    -0.78600
C863        C  0.49916922  0.90439023  0.61361603     0.82200
N864        N  0.53166900  0.89199875  0.62152402    -0.80300
C865        C  0.65253312  0.46815672  0.91915399     0.79600
N866        N  0.66686946  0.50260126  0.91810797    -0.78700
C867        C  0.64846833  0.53243782  0.92878359     0.82100
N868        N  0.61670040  0.52718795  0.94404534    -0.78600
C869        C  0.60204911  0.49290720  0.94577982     0.82200
N870        N  0.61966545  0.46337054  0.93292526    -0.80300
C871        C  0.87836615  0.63129446  0.48574954     0.79600
N872        N  0.90058765  0.60197177  0.48862867    -0.78700
C873        C  0.90924997  0.58817172  0.52002696     0.82100
N874        N  0.89610326  0.60425682  0.54880226    -0.78600
C875        C  0.87385879  0.63368271  0.54602958     0.82200
N876        N  0.86500912  0.64693127  0.51452411    -0.80300
C877        C  0.17655685  0.36357745  0.40284117    -0.02400
C878        C  0.17009736  0.32738348  0.39092058     0.07300
C879        C  0.14826276  0.30280053  0.41060697    -0.02500
C880        C  0.13403612  0.31404865  0.44218450    -0.02500
C881        C  0.14242246  0.34917652  0.45478065     0.07400
C882        C  0.16322728  0.37415739  0.43498600    -0.02700
Br883      Br  0.17485906  0.42228325  0.45266333    -0.01300
Br884      Br  0.20285499  0.39936258  0.37508512    -0.01400
Br885      Br  0.10271399  0.28148337  0.46832423    -0.01300
Br886      Br  0.13953582  0.25259722  0.39638121    -0.01300
C887        C  0.34793504  0.36557090  0.15219151    -0.02400
C888        C  0.34911995  0.35938976  0.18784478     0.07300
C889        C  0.36312061  0.38662453  0.20919362    -0.02500
C890        C  0.37324879  0.42133406  0.19507211    -0.02500
C891        C  0.37002866  0.42823467  0.15956752     0.07400
C892        C  0.35877250  0.39976235  0.13793001    -0.02700
Br893      Br  0.35430953  0.40832669  0.08905308    -0.01300
Br894      Br  0.32832421  0.32831930  0.12312202    -0.01400
Br895      Br  0.39054227  0.45961885  0.22441593    -0.01300
Br896      Br  0.36511737  0.37770878  0.25808367    -0.01300
C897        C  0.38892953  0.13304141  0.33485493    -0.02400
C898        C  0.38528522  0.17187095  0.33074443     0.07300
C899        C  0.40789242  0.19597892  0.34802773    -0.02500
C900        C  0.43488286  0.18127422  0.36827546    -0.02500
C901        C  0.43914761  0.14247711  0.37162913     0.07400
C902        C  0.41551124  0.11833573  0.35571852    -0.02700
Br903      Br  0.41987868  0.06517992  0.36174778    -0.01300
Br904      Br  0.35837813  0.09995824  0.31068649    -0.01400
Br905      Br  0.46498693  0.21434219  0.39296375    -0.01300
Br906      Br  0.40072594  0.24911368  0.34579589    -0.01300
C907        C  0.33628824  0.12833859  0.14588761    -0.02400
C908        C  0.34032312  0.16633821  0.15335989     0.07300
C909        C  0.35858248  0.18996094  0.12975613    -0.02500
C910        C  0.36987227  0.17651524  0.09784888    -0.02500
C911        C  0.36294264  0.13944922  0.08922904     0.07400
C912        C  0.34702844  0.11503801  0.11363904    -0.02700
Br913      Br  0.33753563  0.06415382  0.10202388    -0.01300
Br914      Br  0.31714462  0.09427378  0.18025542    -0.01400
Br915      Br  0.39486528  0.20909049  0.06573969    -0.01300
Br916      Br  0.36667964  0.24143345  0.13981821    -0.01300
C917        C  0.11079894  0.31872189  0.17651564    -0.02400
C918        C  0.12139299  0.32915696  0.20944114     0.07300
C919        C  0.10471781  0.35897319  0.22580402    -0.02500
C920        C  0.07737985  0.37822039  0.20938126    -0.02500
C921        C  0.06678063  0.36795606  0.17635754     0.07400
C922        C  0.08351166  0.33807204  0.15997861    -0.02700
Br923      Br  0.06746702  0.32197200  0.11599942    -0.01300
Br924      Br  0.13255113  0.27659844  0.15494277    -0.01400
Br925      Br  0.05441282  0.41885299  0.23220720    -0.01300
Br926      Br  0.12001088  0.37396836  0.27042556    -0.01300
C927        C  0.13043646  0.09225518  0.36255251    -0.02400
C928        C  0.14506299  0.08051685  0.39376964     0.07300
C929        C  0.16488877  0.10514553  0.41316011    -0.02500
C930        C  0.17313400  0.14052214  0.39964598    -0.02500
C931        C  0.16201334  0.15091744  0.36640421     0.07400
C932        C  0.13910693  0.12742718  0.34861403    -0.02700
Br933      Br  0.12256467  0.14101084  0.30359892    -0.01300
Br934      Br  0.09898785  0.05975756  0.33880925    -0.01400
Br935      Br  0.20152007  0.17385601  0.42590942    -0.01300
Br936      Br  0.18243174  0.08939968  0.45733489    -0.01300
C937        C  0.86198220  0.28774148  0.40923483    -0.02400
C938        C  0.84196906  0.31134364  0.38779176     0.07300
C939        C  0.83789305  0.34912527  0.39616724    -0.02500
C940        C  0.85110929  0.36244156  0.42704387    -0.02500
C941        C  0.86927190  0.33831573  0.44937980     0.07400
C942        C  0.87574854  0.30134430  0.43989155    -0.02700
Br943      Br  0.90357982  0.26941859  0.46902222    -0.01300
Br944      Br  0.86860990  0.23615761  0.39815182    -0.01400
Br945      Br  0.84204415  0.41316661  0.43977404    -0.01300
Br946      Br  0.81445011  0.38305743  0.36517519    -0.01300
C947        C  0.63510742  0.38215200  0.21612769    -0.02400
C948        C  0.65789357  0.36249272  0.19405500     0.07300
C949        C  0.66467099  0.37629457  0.16050820    -0.02500
C950        C  0.65049723  0.41051214  0.14973939    -0.02500
C951        C  0.62777814  0.43022822  0.17172587     0.07400
C952        C  0.61961494  0.41564668  0.20473919    -0.02700
Br953      Br  0.58752884  0.44177966  0.23449761    -0.01300
Br954      Br  0.62740162  0.36509144  0.26289538    -0.01400
Br955      Br  0.66528418  0.43194014  0.10612746    -0.01300
Br956      Br  0.69370459  0.34828924  0.12922459    -0.01300
C957        C  0.62695666  0.18248396  0.09735631    -0.02400
C958        C  0.63186730  0.14470958  0.08984676     0.07300
C959        C  0.64748445  0.12061986  0.11404306    -0.02500
C960        C  0.66167763  0.13514640  0.14397709    -0.02500
C961        C  0.65999202  0.17365913  0.14981572     0.07400
C962        C  0.64085172  0.19699357  0.12746738    -0.02700
Br963      Br  0.63562146  0.24923639  0.13665693    -0.01300
Br964      Br  0.60129195  0.21428617  0.06618848    -0.01400
Br965      Br  0.68353638  0.10227399  0.17700998    -0.01300
Br966      Br  0.65159422  0.06817391  0.10526518    -0.01300
C967        C  0.88964342  0.07669455  0.33029275    -0.02400
C968        C  0.88112292  0.06263988  0.36332389     0.07300
C969        C  0.85769929  0.08200274  0.38480945    -0.02500
C970        C  0.84146869  0.11449003  0.37267508    -0.02500
C971        C  0.84856114  0.12766858  0.33899825     0.07400
C972        C  0.87325156  0.10921547  0.31800000    -0.02700
Br973      Br  0.88243235  0.12647724  0.27152791    -0.01300
Br974      Br  0.92340696  0.05100506  0.30195506    -0.01400
Br975      Br  0.80887387  0.14056846  0.40208877    -0.01300
Br976      Br  0.84612138  0.06297692  0.43025298    -0.01300
C977        C  0.60651031  0.18678309  0.35604134    -0.02400
C978        C  0.62065930  0.16647774  0.32862667     0.07300
C979        C  0.60813492  0.13053932  0.32201129    -0.02500
C980        C  0.58061820  0.11529363  0.34229642    -0.02500
C981        C  0.56600802  0.13596904  0.36920573     0.07400
C982        C  0.57950321  0.17122335  0.37668043    -0.02700
Br983      Br  0.56138725  0.19760213  0.41573891    -0.01300
Br984      Br  0.62436385  0.23570343  0.36549778    -0.01400
Br985      Br  0.56251426  0.06644136  0.33312108    -0.01300
Br986      Br  0.62780975  0.10305277  0.28432237    -0.01300
C987        C  0.89769526  0.32000358  0.18460698    -0.02400
C988        C  0.88522471  0.33197436  0.21671518     0.07300
C989        C  0.90109454  0.36227624  0.23262703    -0.02500
C990        C  0.92901409  0.38133204  0.21584671    -0.02500
C991        C  0.94071508  0.37005354  0.18317051     0.07400
C992        C  0.92539070  0.33907534  0.16779471    -0.02700
Br993      Br  0.94368686  0.32147196  0.12455224    -0.01300
Br994      Br  0.87762059  0.27658782  0.16417217    -0.01400
Br995      Br  0.95110456  0.42289298  0.23739648    -0.01300
Br996      Br  0.88454838  0.37726834  0.27728915    -0.01300
C997        C  0.17375661  0.65119463  0.40345093    -0.02400
C998        C  0.16856898  0.68954631  0.39734408     0.07300
C999        C  0.14604210  0.70958997  0.41911273    -0.02500
C1000       C  0.12924774  0.69152589  0.44730700    -0.02500
C1001       C  0.13529031  0.65341685  0.45413599     0.07400
C1002       C  0.15759410  0.63325125  0.43206707    -0.02700
Br1003     Br  0.16783177  0.58166421  0.44204051    -0.01300
Br1004     Br  0.20362506  0.62335910  0.37290285    -0.01400
Br1005     Br  0.09691221  0.71872903  0.47597246    -0.01300
Br1006     Br  0.13737065  0.76153671  0.40945966    -0.01300
C1007       C  0.37918100  0.80111273  0.38011100    -0.02400
C1008       C  0.36095031  0.82520307  0.35756560     0.07300
C1009       C  0.37334930  0.86185943  0.35185948    -0.02500
C1010       C  0.40453575  0.87380096  0.36723955    -0.02500
C1011       C  0.42367617  0.84908813  0.38818862     0.07400
C1012       C  0.41051901  0.81310530  0.39533454    -0.02700
Br1013     Br  0.43614595  0.78009144  0.42538984    -0.01300
Br1014     Br  0.36318409  0.75068886  0.38795710    -0.01400
Br1015     Br  0.42212021  0.92346327  0.35815924    -0.01300
Br1016     Br  0.34789813  0.89564970  0.32236590    -0.01300
C1017       C  0.32944892  0.84595788  0.12896575    -0.02400
C1018       C  0.32858260  0.80700899  0.13423776     0.07300
C1019       C  0.34289909  0.78373106  0.10894764    -0.02500
C1020       C  0.35942619  0.79926320  0.07939049    -0.02500
C1021       C  0.36071607  0.83819314  0.07434525     0.07400
C1022       C  0.34503519  0.86147729  0.09892341    -0.02700
Br1023     Br  0.34168040  0.91441710  0.09008218    -0.01300
Br1024     Br  0.30653059  0.87815685  0.16143570    -0.01400
Br1025     Br  0.38084789  0.76697113  0.04606655    -0.01300
Br1026     Br  0.33989794  0.73045886  0.11455190    -0.01300
C1027       C  0.08838058  0.62965666  0.16957980    -0.02400
C1028       C  0.07005874  0.65351200  0.14719695     0.07300
C1029       C  0.08440762  0.68824555  0.13737746    -0.02500
C1030       C  0.11580265  0.70052825  0.15209740    -0.02500
C1031       C  0.13347015  0.67736549  0.17578398     0.07400
C1032       C  0.12024652  0.64140364  0.18360013    -0.02700
Br1033     Br  0.14522124  0.60849839  0.21432845    -0.01300
Br1034     Br  0.06865130  0.58178941  0.18258527    -0.01400
Br1035     Br  0.13213068  0.75055922  0.14268486    -0.01300
Br1036     Br  0.06027914  0.71920612  0.10442496    -0.01300
C1037       C  0.34505613  0.62456766  0.16867629    -0.02400
C1038       C  0.30864909  0.62420481  0.17556730     0.07300
C1039       C  0.28832928  0.59256943  0.16889071    -0.02500
C1040       C  0.30473015  0.56044907  0.15663414    -0.02500
C1041       C  0.34125078  0.56075287  0.14959879     0.07400
C1042       C  0.36132207  0.59318799  0.15496268    -0.02700
Br1043     Br  0.41163503  0.59424927  0.14644295    -0.01300
Br1044     Br  0.37296953  0.66732663  0.18029722    -0.01400
Br1045     Br  0.27713028  0.51611372  0.15002917    -0.01300
Br1046     Br  0.23834518  0.59284421  0.17833895    -0.01300
C1047       C  0.19568898  0.93718856  0.39253904    -0.02400
C1048       C  0.15946563  0.94516113  0.39078071     0.07300
C1049       C  0.13665573  0.92076395  0.37407193    -0.02500
C1050       C  0.15026689  0.88934689  0.35788800    -0.02500
C1051       C  0.18668071  0.88210887  0.35844105     0.07400
C1052       C  0.20925436  0.90531357  0.37678051    -0.02700
Br1053     Br  0.25878449  0.89408688  0.37953238    -0.01300
Br1054     Br  0.22658306  0.96975841  0.41679323    -0.01400
Br1055     Br  0.11876092  0.85557705  0.33563753    -0.01300
Br1056     Br  0.08688689  0.93111059  0.37174567    -0.01300
C1057       C  0.87087997  0.68327235  0.44284131    -0.02400
C1058       C  0.86724643  0.64520320  0.45166409     0.07300
C1059       C  0.85101847  0.62102495  0.42866193    -0.02500
C1060       C  0.83741460  0.63510117  0.39769155    -0.02500
C1061       C  0.83859000  0.67361010  0.39009041     0.07400
C1062       C  0.85603499  0.69759330  0.41247420    -0.02700
Br1063     Br  0.85717319  0.75054420  0.40327608    -0.01300
Br1064     Br  0.89657603  0.71586689  0.47224017    -0.01400
Br1065     Br  0.81729837  0.60137059  0.36548562    -0.01300
Br1066     Br  0.84452150  0.56906473  0.44056207    -0.01300
C1067       C  0.66075198  0.62181000  0.16382713    -0.02400
C1068       C  0.65649420  0.63116380  0.19857912     0.07300
C1069       C  0.63443990  0.60935018  0.22045451    -0.02500
C1070       C  0.61807655  0.57735550  0.20792883    -0.02500
C1071       C  0.62441426  0.56662994  0.17387036     0.07400
C1072       C  0.64484719  0.58956631  0.15148328    -0.02700
Br1073     Br  0.65236862  0.57629432  0.10413794    -0.01300
Br1074     Br  0.68810010  0.65344415  0.13288678    -0.01400
Br1075     Br  0.58592111  0.54890227  0.23693382    -0.01300
Br1076     Br  0.62839624  0.62173388  0.26810696    -0.01300
C1077       C  0.67676690  0.79968515  0.11276927    -0.02400
C1078       C  0.66111230  0.81016173  0.14408383     0.07300
C1079       C  0.63125850  0.83305771  0.14391820    -0.02500
C1080       C  0.61681350  0.84530182  0.11248929    -0.02500
C1081       C  0.63394754  0.83703418  0.08067572     0.07400
C1082       C  0.66452522  0.81416665  0.08144224    -0.02700
Br1083     Br  0.69296965  0.80398194  0.04089121    -0.01300
Br1084     Br  0.71541969  0.76469789  0.11269851    -0.01400
Br1085     Br  0.57286616  0.87222197  0.11454489    -0.01300
Br1086     Br  0.61168225  0.84963069  0.18699768    -0.01300
C1087       C  0.59088920  0.79672258  0.35487855    -0.02400
C1088       C  0.60950718  0.82070804  0.33186309     0.07300
C1089       C  0.59888275  0.85812860  0.32846755    -0.02500
C1090       C  0.56986265  0.87139636  0.34778427    -0.02500
C1091       C  0.55167389  0.84754948  0.37122786     0.07400
C1092       C  0.56215531  0.81008087  0.37443956    -0.02700
Br1093     Br  0.53770261  0.77724274  0.40658214    -0.01300
Br1094     Br  0.60574157  0.74581430  0.36084870    -0.01400
Br1095     Br  0.55401486  0.92179774  0.34097600    -0.01300
Br1096     Br  0.62377232  0.89096036  0.29670902    -0.01300
C1097       C  0.82915585  0.87823765  0.38060122    -0.02400
C1098       C  0.83758403  0.86339689  0.34821624     0.07300
C1099       C  0.86418398  0.88041526  0.32741174    -0.02500
C1100       C  0.88205746  0.91187038  0.33896252    -0.02500
C1101       C  0.87237794  0.92748597  0.37042296     0.07400
C1102       C  0.84628039  0.91048241  0.39147997    -0.02700
Br1103     Br  0.83282454  0.93238221  0.43451677    -0.01300
Br1104     Br  0.79419817  0.85458060  0.41030807    -0.01400
Br1105     Br  0.92015507  0.93368902  0.31190850    -0.01300
Br1106     Br  0.87403511  0.86360444  0.28156269    -0.01300
C1107       C  0.91026111  0.66287831  0.21954398    -0.02400
C1108       C  0.88470342  0.68533184  0.20353501     0.07300
C1109       C  0.88810409  0.69341558  0.16795561    -0.02500
C1110       C  0.91682473  0.67951799  0.14874786    -0.02500
C1111       C  0.94232398  0.65714675  0.16479597     0.07400
C1112       C  0.93890531  0.64881438  0.20025059    -0.02700
Br1113     Br  0.97230486  0.61599174  0.22192101    -0.01300
Br1114     Br  0.90461527  0.64909401  0.26739077    -0.01400
Br1115     Br  0.92173834  0.69182562  0.10046604    -0.01300
Br1116     Br  0.85363197  0.72404485  0.14531834    -0.01300
C1117       C  0.36114897  0.38071637  0.85797544    -0.02400
C1118       C  0.32432098  0.37686572  0.86272181     0.07300
C1119       C  0.30555476  0.40368759  0.88141878    -0.02500
C1120       C  0.32299913  0.43570289  0.89260292    -0.02500
C1121       C  0.35907232  0.44106698  0.88482937     0.07400
C1122       C  0.37835491  0.41303885  0.86839136    -0.02700
Br1123     Br  0.42782114  0.42010881  0.85753667    -0.01300
Br1124     Br  0.38831859  0.34157925  0.83722695    -0.01400
Br1125     Br  0.29751934  0.47219014  0.91868742    -0.01300
Br1126     Br  0.25565794  0.39794906  0.88992158    -0.01300
C1127       C  0.37763038  0.13602331  0.68766391    -0.02400
C1128       C  0.36959504  0.17423020  0.68795393     0.07300
C1129       C  0.39358190  0.19985283  0.67263994    -0.02500
C1130       C  0.42603623  0.18760985  0.65870658    -0.02500
C1131       C  0.43436211  0.14934805  0.65864408     0.07400
C1132       C  0.40941396  0.12352362  0.67241846    -0.02700
Br1133     Br  0.41919516  0.07091500  0.67198443    -0.01300
Br1134     Br  0.34492530  0.10087914  0.70853539    -0.01400
Br1135     Br  0.45871379  0.22355521  0.63911627    -0.01300
Br1136     Br  0.38232804  0.25211359  0.67159618    -0.01300
C1137       C  0.14364331  0.12873118  0.68690143    -0.02400
C1138       C  0.18072522  0.12894222  0.68402894     0.07300
C1139       C  0.19794710  0.10113510  0.66520857    -0.02500
C1140       C  0.17830033  0.07138130  0.65220707    -0.02500
C1141       C  0.14159395  0.06918278  0.65847985     0.07400
C1142       C  0.12415235  0.09882604  0.67454149    -0.02700
Br1143     Br  0.07369678  0.09790393  0.68170198    -0.01300
Br1144     Br  0.11926560  0.16977058  0.70782703    -0.01400
Br1145     Br  0.20138770  0.03441987  0.62467072    -0.01300
Br1146     Br  0.24833268  0.10285834  0.65847755    -0.01300
C1147       C  0.10295338  0.29645315  0.87084745    -0.02400
C1148       C  0.12912509  0.32253921  0.86100712     0.07300
C1149       C  0.12214530  0.36069549  0.86428727    -0.02500
C1150       C  0.08896879  0.37283772  0.87647071    -0.02500
C1151       C  0.06279003  0.34673773  0.88719712     0.07400
C1152       C  0.07019276  0.30836239  0.88429773    -0.02700
Br1153     Br  0.03603408  0.27147868  0.89889704    -0.01300
Br1154     Br  0.11169355  0.24420300  0.86451401    -0.01400
Br1155     Br  0.07851537  0.42533977  0.87467883    -0.01300
Br1156     Br  0.15824302  0.39630818  0.85125236    -0.01300
C1157       C  0.15396805  0.28800643  0.62212511    -0.02400
C1158       C  0.17970109  0.30841189  0.63935160     0.07300
C1159       C  0.19037940  0.34355260  0.62628334    -0.02500
C1160       C  0.17505907  0.35838619  0.59635072    -0.02500
C1161       C  0.14866181  0.33837750  0.57972399     0.07400
C1162       C  0.13882705  0.30274254  0.59208762    -0.02700
Br1163     Br  0.10495713  0.27399668  0.56752931    -0.01300
Br1164     Br  0.13862770  0.24042662  0.64036374    -0.01400
Br1165     Br  0.19126141  0.40528843  0.57701731    -0.01300
Br1166     Br  0.22620915  0.37113242  0.64932499    -0.01300
C1167       C  0.30313360  0.16797270  0.92831341    -0.02400
C1168       C  0.32301126  0.19440609  0.90891823     0.07300
C1169       C  0.35843723  0.20094895  0.91741226    -0.02500
C1170       C  0.37377228  0.18144453  0.94512514    -0.02500
C1171       C  0.35375129  0.15535371  0.96466892     0.07400
C1172       C  0.31831701  0.14890723  0.95635360    -0.02700
Br1173     Br  0.29105838  0.11260741  0.98260104    -0.01300
Br1174     Br  0.25596712  0.15565630  0.91487064    -0.01400
Br1175     Br  0.42199695  0.19115390  0.95693180    -0.01300
Br1176     Br  0.38587281  0.23705328  0.89118120    -0.01300
C1177       C  0.80699413  0.33354321  0.61803070    -0.02400
C1178       C  0.82246217  0.30242105  0.63433136     0.07300
C1179       C  0.85333481  0.28681293  0.62041149    -0.02500
C1180       C  0.86876311  0.30218574  0.59027683    -0.02500
C1181       C  0.85366173  0.33357628  0.57429253     0.07400
C1182       C  0.82263001  0.34911413  0.58799584    -0.02700
Br1183     Br  0.80167195  0.39158673  0.56535212    -0.01300
Br1184     Br  0.76503392  0.35542036  0.63737846    -0.01400
Br1185     Br  0.91077265  0.28048710  0.57091608    -0.01300
Br1186     Br  0.87455563  0.24449708  0.64293916    -0.01300
C1187       C  0.70948587  0.41402716  0.85666914    -0.02400
C1188       C  0.70232555  0.37735155  0.86766009     0.07300
C1189       C  0.68232612  0.37046800  0.89785440    -0.02500
C1190       C  0.66843271  0.40043210  0.91626234    -0.02500
C1191       C  0.67143488  0.43710490  0.90258668     0.07400
C1192       C  0.69249909  0.44372339  0.87258560    -0.02700
Br1193     Br  0.69647835  0.49215601  0.85015226    -0.01300
Br1194     Br  0.74375607  0.42356730  0.82028062    -0.01400
Br1195     Br  0.64709643  0.39072427  0.96091718    -0.01300
Br1196     Br  0.67201459  0.32007148  0.91293927    -0.01300
C1197       C  0.79983080  0.07781691  0.69000344    -0.02400
C1198       C  0.79986911  0.11424920  0.67577756     0.07300
C1199       C  0.81361899  0.12056429  0.64220189    -0.02500
C1200       C  0.82893724  0.09106849  0.62401378    -0.02500
C1201       C  0.83062395  0.05521752  0.63931006     0.07400
C1202       C  0.81644630  0.04888714  0.67258938    -0.02700
Br1203     Br  0.82255222  0.00155716  0.69634223    -0.01300
Br1204     Br  0.77502352  0.06634292  0.73260214    -0.01400
Br1205     Br  0.84753328  0.10005549  0.57810734    -0.01300
Br1206     Br  0.81231767  0.16941382  0.62086202    -0.01300
C1207       C  0.61024980  0.19611424  0.66492826    -0.02400
C1208       C  0.62857813  0.17303380  0.68831400     0.07300
C1209       C  0.61548121  0.13679286  0.69560298    -0.02500
C1210       C  0.58403235  0.12438448  0.68065822    -0.02500
C1211       C  0.56516913  0.14794576  0.65827027     0.07400
C1212       C  0.57887333  0.18351709  0.64990051    -0.02700
Br1213     Br  0.55471925  0.21489845  0.61737480    -0.01300
Br1214     Br  0.62648647  0.24610401  0.65515999    -0.01400
Br1215     Br  0.56615957  0.07530676  0.69174463    -0.01300
Br1216     Br  0.64087098  0.10357033  0.72575551    -0.01300
C1217       C  0.64459367  0.19343210  0.91601254    -0.02400
C1218       C  0.68046661  0.18809142  0.90757211     0.07300
C1219       C  0.70130617  0.16487383  0.92853297    -0.02500
C1220       C  0.68620010  0.14687318  0.95764191    -0.02500
C1221       C  0.65027600  0.15190177  0.96569598     0.07400
C1222       C  0.62958546  0.17544193  0.94508418    -0.02700
Br1223     Br  0.58078828  0.18368329  0.95729161    -0.01300
Br1224     Br  0.61603414  0.22601929  0.88817601    -0.01400
Br1225     Br  0.71421315  0.11401699  0.98570833    -0.01300
Br1226     Br  0.74987627  0.15567981  0.91613215    -0.01300
C1227       C  0.89010206  0.29705311  0.87785851    -0.02400
C1228       C  0.87038791  0.32154592  0.85698431     0.07300
C1229       C  0.88019142  0.35936608  0.85469037    -0.02500
C1230       C  0.91068815  0.37206822  0.87115400    -0.02500
C1231       C  0.93189331  0.34701135  0.88995387     0.07400
C1232       C  0.92065395  0.30973323  0.89423341    -0.02700
Br1233     Br  0.94610655  0.27628531  0.92388517    -0.01300
Br1234     Br  0.87600969  0.24565417  0.88322172    -0.01400
Br1235     Br  0.92373849  0.42379740  0.86712109    -0.01300
Br1236     Br  0.85098055  0.39406884  0.82991028    -0.01300
C1237       C  0.19274384  0.66670192  0.60735782    -0.02400
C1238       C  0.17216553  0.67455142  0.63712807     0.07300
C1239       C  0.13595086  0.66515111  0.63783062    -0.02500
C1240       C  0.11998447  0.65144021  0.60828442    -0.02500
C1241       C  0.14046592  0.64485203  0.57852512     0.07400
C1242       C  0.17706374  0.65096126  0.57875082    -0.02700
Br1243     Br  0.20648748  0.63575118  0.54040016    -0.01300
Br1244     Br  0.24251317  0.67793429  0.60384414    -0.01400
Br1245     Br  0.06975361  0.64309559  0.60850267    -0.01300
Br1246     Br  0.10833976  0.66792845  0.67981648    -0.01300
C1247       C  0.40543825  0.80562838  0.69941788    -0.02400
C1248       C  0.38288492  0.83093500  0.71604308     0.07300
C1249       C  0.39134290  0.86908421  0.71547845    -0.02500
C1250       C  0.42164541  0.88204228  0.69752125    -0.02500
C1251       C  0.44394776  0.85676227  0.68053699     0.07400
C1252       C  0.43591470  0.81847584  0.68189728    -0.02700
Br1253     Br  0.46513853  0.78360107  0.65761640    -0.01300
Br1254     Br  0.39346920  0.75343319  0.69835834    -0.01400
Br1255     Br  0.43288392  0.93438806  0.69671959    -0.01300
Br1256     Br  0.36192668  0.90330208  0.74027605    -0.01300
C1257       C  0.09845985  0.63845681  0.81896350    -0.02400
C1258       C  0.10491114  0.67705678  0.81685871     0.07300
C1259       C  0.08155856  0.70157805  0.83338282    -0.02500
C1260       C  0.05336721  0.68738595  0.85378534    -0.02500
C1261       C  0.04821775  0.64855400  0.85760585     0.07400
C1262       C  0.07002063  0.62429178  0.83893119    -0.02700
Br1263     Br  0.05968920  0.57174834  0.83900930    -0.01300
Br1264     Br  0.12817672  0.60499641  0.79356122    -0.01400
Br1265     Br  0.02299324  0.72143454  0.87769997    -0.01300
Br1266     Br  0.08928914  0.75460385  0.82969644    -0.01300
C1267       C  0.36925075  0.58207989  0.83800927    -0.02400
C1268       C  0.36889155  0.57642898  0.87386836     0.07300
C1269       C  0.35326597  0.60304571  0.89532828    -0.02500
C1270       C  0.33619358  0.63407033  0.88075697    -0.02500
C1271       C  0.33471687  0.63841183  0.84485395     0.07400
C1272       C  0.35199435  0.61292679  0.82348613    -0.02700
Br1273     Br  0.35002989  0.61890557  0.77426822    -0.01300
Br1274     Br  0.39353016  0.54745754  0.80881681    -0.01400
Br1275     Br  0.31434823  0.67054436  0.90975314    -0.01300
Br1276     Br  0.35319897  0.59591120  0.94449864    -0.01300
C1277       C  0.31567529  0.84278121  0.95136751    -0.02400
C1278       C  0.35182505  0.85210711  0.95012711     0.07300
C1279       C  0.37073753  0.85005861  0.91864013    -0.02500
C1280       C  0.35382614  0.83770157  0.88907212    -0.02500
C1281       C  0.31840035  0.82565021  0.89105696     0.07400
C1282       C  0.29945336  0.82832096  0.92246268    -0.02700
Br1283     Br  0.25167299  0.81016210  0.92751883    -0.01300
Br1284     Br  0.28706627  0.85177943  0.99199680    -0.01400
Br1285     Br  0.37911063  0.83908780  0.84558317    -0.01300
Br1286     Br  0.42021949  0.86262809  0.91555195    -0.01300
C1287       C  0.15795454  0.87767591  0.64768210    -0.02400
C1288       C  0.15391519  0.86561100  0.68212093     0.07300
C1289       C  0.13290075  0.88633466  0.70500815    -0.02500
C1290       C  0.11842666  0.92040314  0.69414014    -0.02500
C1291       C  0.12472848  0.93368975  0.66047523     0.07400
C1292       C  0.14306923  0.91158136  0.63675540    -0.02700
Br1293     Br  0.14882856  0.92840935  0.58969198    -0.01300
Br1294     Br  0.18412476  0.84774906  0.61572813    -0.01400
Br1295     Br  0.09011617  0.94930309  0.72528778    -0.01300
Br1296     Br  0.12586678  0.86975106  0.75198845    -0.01300
C1297       C  0.80413690  0.65966368  0.61186388    -0.02400
C1298       C  0.82337297  0.68266854  0.63368890     0.07300
C1299       C  0.85945600  0.68935983  0.62667462    -0.02500
C1300       C  0.87630612  0.67256477  0.59850115    -0.02500
C1301       C  0.85701009  0.64962262  0.57678202     0.07400
C1302       C  0.82085087  0.64351716  0.58332241    -0.02700
Br1303     Br  0.79439943  0.61223213  0.55339860    -0.01300
Br1304     Br  0.75522953  0.64878985  0.62180344    -0.01400
Br1305     Br  0.92550883  0.68210187  0.58885869    -0.01300
Br1306     Br  0.88537932  0.72329998  0.65443900    -0.01300
C1307       C  0.64885869  0.62356091  0.87956992    -0.02400
C1308       C  0.68534721  0.63003491  0.87719648     0.07300
C1309       C  0.70873432  0.60851930  0.89691321    -0.02500
C1310       C  0.69574051  0.57884700  0.91723325    -0.02500
C1311       C  0.65966587  0.56958167  0.91654754     0.07400
C1312       C  0.63591790  0.59301167  0.89875254    -0.02700
Br1313     Br  0.58617341  0.58202364  0.89645805    -0.01300
Br1314     Br  0.61654945  0.65558613  0.85513281    -0.01400
Br1315     Br  0.72782169  0.54995510  0.94492596    -0.01300
Br1316     Br  0.75902246  0.61642856  0.89298143    -0.01300
C1317       C  0.61475484  0.80593701  0.65684216    -0.02400
C1318       C  0.63678367  0.82740917  0.67748679     0.07300
C1319       C  0.62726831  0.86429404  0.68513119    -0.02500
C1320       C  0.59433155  0.87812981  0.67531849    -0.02500
C1321       C  0.57143444  0.85557075  0.65688429     0.07400
C1322       C  0.58244084  0.82045001  0.64593592    -0.02700
Br1323     Br  0.55298857  0.79228479  0.61612478    -0.01300
Br1324     Br  0.62661338  0.75539484  0.64623456    -0.01400
Br1325     Br  0.57987387  0.92734947  0.68826082    -0.01300
Br1326     Br  0.65913172  0.89568812  0.70958759    -0.01300
C1327       C  0.64892811  0.78240629  0.91874826    -0.02400
C1328       C  0.67206354  0.80422658  0.89811205     0.07300
C1329       C  0.67773475  0.84178284  0.90600065    -0.02500
C1330       C  0.66008127  0.85755272  0.93420873    -0.02500
C1331       C  0.63687297  0.83563201  0.95488803     0.07400
C1332       C  0.63112866  0.79812234  0.94685816    -0.02700
Br1333     Br  0.59733394  0.76879936  0.97330775    -0.01300
Br1334     Br  0.64121048  0.73107858  0.90821620    -0.01400
Br1335     Br  0.66896842  0.90880086  0.94506894    -0.01300
Br1336     Br  0.71129170  0.87101664  0.87919824    -0.01300
C1337       C  0.78237469  0.88401670  0.63819903    -0.02400
C1338       C  0.80552056  0.86052629  0.65612705     0.07300
C1339       C  0.84207032  0.86656712  0.65390892    -0.02500
C1340       C  0.85546008  0.89821503  0.63665477    -0.02500
C1341       C  0.83216158  0.92321794  0.62015614     0.07400
C1342       C  0.79573290  0.91510575  0.61982374    -0.02700
Br1343     Br  0.76372497  0.94718952  0.59528218    -0.01300
Br1344     Br  0.73215698  0.87575967  0.64159275    -0.01400
Br1345     Br  0.90526055  0.90859552  0.64015659    -0.01300
Br1346     Br  0.87385494  0.83189658  0.67581494    -0.01300
C1347       C  0.86932877  0.62622518  0.85194737    -0.02400
C1348       C  0.85799915  0.66290366  0.85792185     0.07300
C1349       C  0.87745922  0.68585495  0.87961354    -0.02500
C1350       C  0.90950876  0.67327021  0.89282162    -0.02500
C1351       C  0.92227792  0.63806610  0.88411356     0.07400
C1352       C  0.90148224  0.61377397  0.86518055    -0.02700
Br1353     Br  0.91811440  0.56430452  0.85581338    -0.01300
Br1354     Br  0.84143722  0.59346461  0.82470199    -0.01400
Br1355     Br  0.93657166  0.70453048  0.92219265    -0.01300
Br1356     Br  0.86276239  0.73604565  0.88834435    -0.01300
loop_ 
_geom_bond_atom_site_label_1 
_geom_bond_atom_site_label_2 
_geom_bond_distance 
_geom_bond_site_symmetry_2 
_ccdc_geom_bond_type 
N1            C6   1.356       .  A
N1            C5   1.351   1_565  A
N1           H33   1.028       .  S
N2            C9   1.351       .  A
N2           C10   1.354       .  A
N3            C8   1.352       .  A
N3            C7   1.357   1_565  A
N3           H34   1.035       .  S
N4           C11   1.354       .  A
N4           C12   1.349       .  A
C5           C13   1.389       .  A
C5           C21   1.420       .  A
C6           C22   1.421       .  A
C6           C14   1.387       .  A
C7           C15   1.385       .  A
C7           C24   1.418       .  A
C8           C23   1.419       .  A
C8           C16   1.389       .  A
C9           C21   1.419       .  A
C9           C17   1.389       .  A
C10          C24   1.415       .  A
C10          C18   1.385       .  A
C11          C19   1.386       .  A
C11          C22   1.420       .  A
C12          C20   1.388       .  A
C12          C23   1.417       .  A
C13          C14   1.374   1_545  A
C13          H25   1.082       .  S
C14          H26   1.081       .  S
C15          C16   1.373   1_545  A
C15          H27   1.081       .  S
C16          H28   1.082       .  S
C17          C18   1.374       .  A
C17          H29   1.083       .  S
C18          H30   1.082       .  S
C19          C20   1.375       .  A
C19          H31   1.082       .  S
C20          H32   1.083       .  S
C21         C755   1.471       .  S
C22         C801   1.489       .  S
C23         C863   1.469       .  S
C24         C839   1.488       .  S
N35          C40   1.352   1_655  A
N35          C39   1.353       .  A
N35          H67   1.036       .  S
N36          C43   1.353       .  A
N36          C44   1.352       .  A
N37          C42   1.354       .  A
N37          C41   1.352   1_455  A
N37          H68   1.034       .  S
N38          C45   1.352       .  A
N38          C46   1.351       .  A
C39          C47   1.387       .  A
C39          C55   1.415       .  A
C40          C56   1.414       .  A
C40          C48   1.387       .  A
C41          C49   1.388       .  A
C41          C58   1.417       .  A
C42          C57   1.417       .  A
C42          C50   1.388       .  A
C43          C55   1.416       .  A
C43          C51   1.386       .  A
C44          C58   1.417       .  A
C44          C52   1.387       .  A
C45          C53   1.385       .  A
C45          C56   1.412       .  A
C46          C54   1.387       .  A
C46          C57   1.415       .  A
C47          C48   1.373   1_655  A
C47          H59   1.081       .  S
C48          H60   1.082       .  S
C49          C50   1.376   1_655  A
C49          H61   1.082       .  S
C50          H62   1.083       .  S
C51          C52   1.375       .  A
C51          H63   1.082       .  S
C52          H64   1.082       .  S
C53          C54   1.372       .  A
C53          H65   1.082       .  S
C54          H66   1.081       .  S
C55         C873   1.479       .  S
C56         C807   1.475       .  S
C57         C819   1.476       .  S
C58         C777   1.477       .  S
N69          C74   1.347       .  A
N69          C73   1.351       .  A
N69         H101   1.030       .  S
N70          C77   1.350       .  A
N70          C78   1.346       .  A
N71          C76   1.355       .  A
N71          C75   1.352       .  A
N71         H102   1.037       .  S
N72          C79   1.347       .  A
N72          C80   1.346   1_554  A
C73          C81   1.386       .  A
C73          C89   1.409       .  A
C74          C90   1.412       .  A
C74          C82   1.390       .  A
C75          C83   1.389       .  A
C75          C92   1.417       .  A
C76          C91   1.413       .  A
C76          C84   1.385       .  A
C77          C89   1.409       .  A
C77          C85   1.383       .  A
C78          C92   1.411   1_554  A
C78          C86   1.390       .  A
C79          C87   1.387       .  A
C79          C90   1.407       .  A
C80          C88   1.388       .  A
C80          C91   1.408       .  A
C81          C82   1.367       .  A
C81          H93   1.082       .  S
C82          H94   1.082       .  S
C83          C84   1.374       .  A
C83          H95   1.082       .  S
C84          H96   1.083       .  S
C85          C86   1.366       .  A
C85          H97   1.079       .  S
C86          H98   1.082       .  S
C87          C88   1.369   1_554  A
C87          H99   1.082       .  S
C88         H100   1.082       .  S
C89         C771   1.469       .  S
C90         C785   1.456       .  S
C91         C843   1.468       .  S
C92         C869   1.463       .  S
N103        C108   1.354       .  A
N103        C107   1.355       .  A
N103        H135   1.032   1_655  S
N104        C111   1.353       .  A
N104        C112   1.352   1_554  A
N105        C110   1.356   1_455  A
N105        C109   1.356       .  A
N105        H136   1.033       .  S
N106        C113   1.356   1_655  A
N106        C114   1.354   1_655  A
C107        C115   1.388       .  A
C107        C123   1.420       .  A
C108        C124   1.421   1_655  A
C108        C116   1.389       .  A
C109        C117   1.388   1_455  A
C109        C126   1.422       .  A
C110        C125   1.424       .  A
C110        C118   1.388       .  A
C111        C123   1.418   1_455  A
C111        C119   1.387       .  A
C112        C126   1.417       .  A
C112        C120   1.387       .  A
C113        C121   1.386       .  A
C113        C124   1.422       .  A
C114        C122   1.387       .  A
C114        C125   1.422   1_454  A
C115        C116   1.374       .  A
C115        H127   1.082       .  S
C116        H128   1.082       .  S
C117        C118   1.376       .  A
C117        H129   1.082       .  S
C118        H130   1.081       .  S
C119        C120   1.373   1_554  A
C119        H131   1.083       .  S
C120        H132   1.083       .  S
C121        C122   1.376       .  A
C121        H133   1.082       .  S
C122        H134   1.082   1_554  S
C123        C789   1.481       .  S
C124        C741   1.487       .  S
C125        C827   1.488       .  S
C126        C855   1.480   1_455  S
N137        C142   1.353       .  A
N137        C141   1.353       .  A
N137        H169   1.034       .  S
N138        C145   1.351       .  A
N138        C146   1.350   1_565  A
N139        C144   1.355       .  A
N139        C143   1.353       .  A
N139        H170   1.035       .  S
N140        C147   1.351       .  A
N140        C148   1.352   1_565  A
C141        C149   1.387       .  A
C141        C157   1.416       .  A
C142        C158   1.417       .  A
C142        C150   1.389       .  A
C143        C151   1.389       .  A
C143        C160   1.418       .  A
C144        C159   1.417       .  A
C144        C152   1.387       .  A
C145        C157   1.411       .  A
C145        C153   1.386       .  A
C146        C160   1.413       .  A
C146        C154   1.388       .  A
C147        C155   1.387       .  A
C147        C158   1.415       .  A
C148        C156   1.386       .  A
C148        C159   1.413       .  A
C149        C150   1.373       .  A
C149        H161   1.082       .  S
C150        H162   1.082       .  S
C151        C152   1.374       .  A
C151        H163   1.082       .  S
C152        H164   1.082       .  S
C153        C154   1.373   1_565  A
C153        H165   1.082       .  S
C154        H166   1.082       .  S
C155        C156   1.372   1_565  A
C155        H167   1.082       .  S
C156        H168   1.082       .  S
C157        C815   1.474       .  S
C158        C795   1.474       .  S
C159        C749   1.479       .  S
C160        C765   1.473       .  S
Zr171       O172   2.437       .  S
Zr171       O173   2.418       .  S
Zr171       O174   2.455       .  S
Zr171       O177   2.443       .  S
Zr171       O179   2.382       .  S
Zr171       O180   2.387       .  S
Zr171       O181   2.403       .  S
Zr171       O182   2.402       .  S
O172        H228   0.990       .  S
O172        H236   0.989       .  S
O173        C193   1.280       .  A
O174        C195   1.288       .  A
O175       Zr185   2.431       .  S
O175        C194   1.284       .  A
O176       Zr184   2.395       .  S
O176        C195   1.279       .  A
O177        C194   1.287       .  A
O178       Zr186   2.404       .  S
O178        C193   1.279       .  A
O179       Zr184   2.392       .  S
O179       Zr186   2.369       .  S
O180       Zr185   2.387       .  S
O180       Zr186   2.376       .  S
O180        H215   0.966       .  S
O181       Zr184   2.399       .  S
O181       Zr201   2.389       .  S
O181        H218   0.966       .  S
O182       Zr185   2.388       .  S
O182       Zr201   2.392       .  S
Zr183       O208   2.436       .  S
Zr183       O202   2.403       .  S
Zr183       O210   2.431       .  S
Zr183       O198   2.447       .  S
Zr183       O189   2.401       .  S
Zr183       O190   2.390       .  S
Zr183       O191   2.375       .  S
Zr183       O192   2.390       .  S
Zr184       O203   2.436       .  S
Zr184       O196   2.434       .  S
Zr184       O197   2.425       .  S
Zr184       O190   2.391       .  S
Zr184       O191   2.374       .  S
Zr185       O187   2.437       .  S
Zr185       O209   2.435       .  S
Zr185       O211   2.416       .  S
Zr185       O189   2.395       .  S
Zr185       O192   2.384       .  S
Zr186       O212   2.434       .  S
Zr186       O213   2.435       .  S
Zr186       O188   2.437       .  S
Zr186       O189   2.391       .  S
Zr186       O190   2.385       .  S
O187        H224   0.990       .  S
O188        H219   0.990       .  S
O188        H233   0.990       .  S
O190        H216   0.966       .  S
O191       Zr201   2.379       .  S
O192       Zr201   2.377       .  S
O192        H217   0.966       .  S
C193       C1338   1.464       .  S
C194       C1298   1.482       .  S
C195       C1318   1.473       .  S
O196        H232   0.990       .  S
O197        C199   1.282       .  A
O198        C199   1.286       .  A
C199       C1328   1.477       .  S
O200       Zr201   2.440       .  S
O200        H229   0.990       .  S
Zr201       O204   2.436       .  S
Zr201       O205   2.440       .  S
Zr201       O206   2.413       .  S
O202        C207   1.279       .  A
O203        H220   0.990       .  S
O203        H235   0.990       .  S
O204        H221   0.990       .  S
O205        H225   0.990       .  S
O205        H234   0.990       .  S
O206        C207   1.282       .  A
C207       C1308   1.460       .  S
O208        H227   0.990       .  S
O208        H231   0.990       .  S
O209        H223   0.990       .  S
O209        H230   0.989       .  S
O210        C214   1.285       .  A
O211        C214   1.282       .  A
O212        H222   0.990       .  S
O213        H226   0.990       .  S
C214       C1348   1.472       .  S
Zr237       O238   2.443       .  S
Zr237       O239   2.435       .  S
Zr237       O240   2.447       .  S
Zr237       O243   2.432       .  S
Zr237       O245   2.383       .  S
Zr237       O246   2.386       .  S
Zr237       O247   2.407       .  S
Zr237       O248   2.400       .  S
O238        H294   0.990       .  S
O238        H302   0.990       .  S
O239        C259   1.283       .  A
O240        C261   1.285       .  A
O241       Zr251   2.426       .  S
O241        C260   1.282       .  A
O242       Zr250   2.433       .  S
O242        C261   1.284       .  A
O243        C260   1.283       .  A
O244       Zr252   2.408       .  S
O244        C259   1.278       .  A
O245       Zr250   2.401       .  S
O245       Zr252   2.380       .  S
O246       Zr251   2.395       .  S
O246       Zr252   2.376       .  S
O246        H281   0.966       .  S
O247       Zr250   2.401       .  S
O247       Zr267   2.379       .  S
O247        H284   0.964       .  S
O248       Zr251   2.383       .  S
O248       Zr267   2.382       .  S
Zr249       O274   2.441       .  S
Zr249       O268   2.455       .  S
Zr249       O276   2.456       .  S
Zr249       O264   2.449       .  S
Zr249       O255   2.400       .  S
Zr249       O256   2.417       .  S
Zr249       O257   2.382       .  S
Zr249       O258   2.387       .  S
Zr250       O269   2.436       .  S
Zr250       O262   2.436       .  S
Zr250       O263   2.431       .  S
Zr250       O256   2.403       .  S
Zr250       O257   2.398       .  S
Zr251       O253   2.439       .  S
Zr251       O275   2.437       .  S
Zr251       O277   2.416       .  S
Zr251       O255   2.391       .  S
Zr251       O258   2.391       .  S
Zr252       O278   2.433       .  S
Zr252       O279   2.434       .  S
Zr252       O254   2.437       .  S
Zr252       O255   2.389       .  S
Zr252       O256   2.379       .  S
O253        H290   0.990       .  S
O254        H285   0.990       .  S
O254        H299   0.990       .  S
O256        H282   0.963       .  S
O257       Zr267   2.385       .  S
O258       Zr267   2.381       .  S
O258        H283   0.966       .  S
C259       C1281   1.483       .  S
C260       C1271   1.469       .  S
C261       C1248   1.478       .  S
O262        H298   0.990       .  S
O263        C265   1.284       .  A
O264        C265   1.285       .  A
C265       C1288   1.474       .  S
O266       Zr267   2.438       .  S
O266        H295   0.990       .  S
Zr267       O270   2.436       .  S
Zr267       O271   2.440       .  S
Zr267       O272   2.392       .  S
O268        C273   1.287       .  A
O269        H286   0.990       .  S
O269        H301   0.990       .  S
O270        H287   0.990       .  S
O271        H291   0.990       .  S
O271        H300   0.990       .  S
O272        C273   1.274       .  A
C273       C1238   1.489       .  S
O274        H293   0.991       .  S
O274        H297   0.990       .  S
O275        H289   0.990       .  S
O275        H296   0.990       .  S
O276        C280   1.288       .  A
O277        C280   1.282       .  A
O278        H288   0.990       .  S
O279        H292   0.990       .  S
C280       C1258   1.482       .  S
Zr303       O304   2.440       .  S
Zr303       O305   2.422       .  S
Zr303       O306   2.455       .  S
Zr303       O309   2.443       .  S
Zr303       O311   2.385       .  S
Zr303       O312   2.387       .  S
Zr303       O313   2.406       .  S
Zr303       O314   2.399       .  S
O304        H360   0.990       .  S
O304        H368   0.990       .  S
O305        C325   1.280       .  A
O306        C327   1.287       .  A
O307       Zr317   2.411       .  S
O307        C326   1.281       .  A
O308       Zr316   2.448       .  S
O308        C327   1.287       .  A
O309        C326   1.286       .  A
O310       Zr318   2.409       .  S
O310        C325   1.280       .  A
O311       Zr316   2.393       .  S
O311       Zr318   2.384       .  S
O312       Zr317   2.387       .  S
O312       Zr318   2.374       .  S
O312        H347   0.966       .  S
O313       Zr316   2.398       .  S
O313       Zr333   2.387       .  S
O313        H350   0.965       .  S
O314       Zr317   2.396       .  S
O314       Zr333   2.389       .  S
Zr315       O340   2.439       .  S
Zr315       O334   2.442       .  S
Zr315       O342   2.474       .  S
Zr315       O330   2.448       .  S
Zr315       O321   2.400       .  S
Zr315       O322   2.415       .  S
Zr315       O323   2.391       .  S
Zr315       O324   2.382       .  S
Zr316       O335   2.436       .  S
Zr316       O328   2.435       .  S
Zr316       O329   2.431       .  S
Zr316       O322   2.404       .  S
Zr316       O323   2.399       .  S
Zr317       O319   2.434       .  S
Zr317       O341   2.437       .  S
Zr317       O343   2.421       .  S
Zr317       O321   2.392       .  S
Zr317       O324   2.391       .  S
Zr318       O344   2.437       .  S
Zr318       O345   2.435       .  S
Zr318       O320   2.436       .  S
Zr318       O321   2.395       .  S
Zr318       O322   2.382       .  S
O319        H356   0.990       .  S
O320        H351   0.990       .  S
O320        H365   0.989       .  S
O322        H348   0.965       .  S
O323       Zr333   2.378       .  S
O324       Zr333   2.384       .  S
O324        H349   0.966       .  S
C325       C1188   1.468       .  S
C326       C1218   1.475       .  S
C327       C1228   1.492       .  S
O328        H364   0.990       .  S
O329        C331   1.284       .  A
O330        C331   1.287       .  A
C331       C1178   1.474       .  S
O332       Zr333   2.440       .  S
O332        H361   0.990       .  S
Zr333       O336   2.437       .  S
Zr333       O337   2.439       .  S
Zr333       O338   2.408       .  S
O334        C339   1.284       .  A
O335        H352   0.990       .  S
O335        H367   0.990       .  S
O336        H353   0.990       .  S
O337        H357   0.990       .  S
O337        H366   0.990       .  S
O338        C339   1.280       .  A
C339       C1198   1.483       .  S
O340        H359   0.990       .  S
O340        H363   0.990       .  S
O341        H355   0.990       .  S
O341        H362   0.990       .  S
O342        C346   1.291       .  A
O343        C346   1.282       .  A
O344        H354   0.990       .  S
O345        H358   0.990       .  S
C346       C1208   1.497       .  S
Zr369       O370   2.441       .  S
Zr369       O371   2.448       .  S
Zr369       O372   2.480       .  S
Zr369       O375   2.451       .  S
Zr369       O377   2.386       .  S
Zr369       O378   2.391       .  S
Zr369       O379   2.407       .  S
Zr369       O380   2.408       .  S
O370        H426   0.990       .  S
O370        H434   0.990       .  S
O371        C391   1.286       .  A
O372        C393   1.292       .  A
O373       Zr383   2.425       .  S
O373        C392   1.283       .  A
O374       Zr382   2.428       .  S
O374        C393   1.283       .  A
O375        C392   1.288       .  A
O376       Zr384   2.407       .  S
O376        C391   1.280       .  A
O377       Zr382   2.395       .  S
O377       Zr384   2.383       .  S
O378       Zr383   2.388       .  S
O378       Zr384   2.374       .  S
O378        H413   0.966       .  S
O379       Zr382   2.401       .  S
O379       Zr399   2.385       .  S
O379        H416   0.964       .  S
O380       Zr383   2.388       .  S
O380       Zr399   2.381       .  S
Zr381       O406   2.443       .  S
Zr381       O400   2.459       .  S
Zr381       O408   2.486       .  S
Zr381       O396   2.471       .  S
Zr381       O387   2.407       .  S
Zr381       O388   2.412       .  S
Zr381       O389   2.387       .  S
Zr381       O390   2.394       .  S
Zr382       O401   2.437       .  S
Zr382       O394   2.434       .  S
Zr382       O395   2.426       .  S
Zr382       O388   2.396       .  S
Zr382       O389   2.394       .  S
Zr383       O385   2.436       .  S
Zr383       O407   2.438       .  S
Zr383       O409   2.411       .  S
Zr383       O387   2.399       .  S
Zr383       O390   2.397       .  S
Zr384       O410   2.435       .  S
Zr384       O411   2.436       .  S
Zr384       O386   2.436       .  S
Zr384       O387   2.390       .  S
Zr384       O388   2.382       .  S
O385        H422   0.990       .  S
O386        H417   0.990       .  S
O386        H431   0.990       .  S
O388        H414   0.965       .  S
O389       Zr399   2.386       .  S
O390       Zr399   2.384       .  S
O390        H415   0.966       .  S
C391       C1138   1.477       .  S
C392       C1158   1.478       .  S
C393       C1128   1.490       .  S
O394        H430   0.990       .  S
O395        C397   1.283       .  A
O396        C397   1.291       .  A
C397       C1168   1.486       .  S
O398       Zr399   2.439       .  S
O398        H427   0.990       .  S
Zr399       O402   2.434       .  S
Zr399       O403   2.442       .  S
Zr399       O404   2.388       .  S
O400        C405   1.288       .  A
O401        H418   0.990       .  S
O401        H433   0.990       .  S
O402        H419   0.989       .  S
O403        H423   0.989       .  S
O403        H432   0.990       .  S
O404        C405   1.276       .  A
C405       C1118   1.478       .  S
O406        H425   0.990       .  S
O406        H429   0.991       .  S
O407        H421   0.990       .  S
O407        H428   0.990       .  S
O408        C412   1.292       .  A
O409        C412   1.279       .  A
O410        H420   0.990       .  S
O411        H424   0.990       .  S
C412       C1148   1.485       .  S
Zr435       O436   2.443       .  S
Zr435       O437   2.462       .  S
Zr435       O438   2.479       .  S
Zr435       O441   2.443       .  S
Zr435       O443   2.383       .  S
Zr435       O444   2.392       .  S
Zr435       O445   2.410       .  S
Zr435       O446   2.409       .  S
O436        H492   0.990       .  S
O436        H500   0.990       .  S
O437        C457   1.288       .  A
O438        C459   1.291       .  A
O439       Zr449   2.416       .  S
O439        C458   1.282       .  A
O440       Zr448   2.425       .  S
O440        C459   1.282       .  A
O441        C458   1.286       .  A
O442       Zr450   2.400       .  S
O442        C457   1.278       .  A
O443       Zr448   2.397       .  S
O443       Zr450   2.384       .  S
O444       Zr449   2.390       .  S
O444       Zr450   2.378       .  S
O444        H479   0.965       .  S
O445       Zr448   2.395       .  S
O445       Zr465   2.394       .  S
O445        H482   0.964       .  S
O446       Zr449   2.390       .  S
O446       Zr465   2.386       .  S
Zr447       O472   2.441       .  S
Zr447       O466   2.448       .  S
Zr447       O474   2.479       .  S
Zr447       O462   2.449       .  S
Zr447       O453   2.400       .  S
Zr447       O454   2.416       .  S
Zr447       O455   2.388       .  S
Zr447       O456   2.385       .  S
Zr448       O467   2.435       .  S
Zr448       O460   2.435       .  S
Zr448       O461   2.416       .  S
Zr448       O454   2.400       .  S
Zr448       O455   2.396       .  S
Zr449       O451   2.438       .  S
Zr449       O473   2.437       .  S
Zr449       O475   2.415       .  S
Zr449       O453   2.391       .  S
Zr449       O456   2.393       .  S
Zr450       O476   2.431       .  S
Zr450       O477   2.434       .  S
Zr450       O452   2.437       .  S
Zr450       O453   2.392       .  S
Zr450       O454   2.377       .  S
O451        H488   0.990       .  S
O452        H483   0.990       .  S
O452        H497   0.990       .  S
O454        H480   0.964       .  S
O455       Zr465   2.381       .  S
O456       Zr465   2.385       .  S
O456        H481   0.966       .  S
C457       C1078   1.480       .  S
C458       C1068   1.474       .  S
C459       C1088   1.489       .  S
O460        H496   0.990       .  S
O461        C463   1.282       .  A
O462        C463   1.287       .  A
C463       C1098   1.478       .  S
O464       Zr465   2.439       .  S
O464        H493   0.990       .  S
Zr465       O468   2.437       .  S
Zr465       O469   2.440       .  S
Zr465       O470   2.411       .  S
O466        C471   1.285       .  A
O467        H484   0.990       .  S
O467        H499   0.990       .  S
O468        H485   0.990       .  S
O469        H489   0.989       .  S
O469        H498   0.990       .  S
O470        C471   1.280       .  A
C471       C1061   1.482       .  S
O472        H491   0.990       .  S
O472        H495   0.990       .  S
O473        H487   0.990       .  S
O473        H494   0.988       .  S
O474        C478   1.291       .  A
O475        C478   1.280       .  A
O476        H486   0.989       .  S
O477        H490   0.990       .  S
C478       C1108   1.490       .  S
Zr501       O502   2.441       .  S
Zr501       O503   2.433       .  S
Zr501       O504   2.462       .  S
Zr501       O507   2.458       .  S
Zr501       O509   2.388       .  S
Zr501       O510   2.389       .  S
Zr501       O511   2.409       .  S
Zr501       O512   2.398       .  S
O502        H558   0.990       .  S
O502        H566   0.990       .  S
O503        C523   1.282       .  A
O504        C525   1.288       .  A
O505       Zr515   2.407       .  S
O505        C524   1.279       .  A
O506       Zr514   2.417       .  S
O506        C525   1.282       .  A
O507        C524   1.289       .  A
O508       Zr516   2.405       .  S
O508        C523   1.279       .  A
O509       Zr514   2.398       .  S
O509       Zr516   2.382       .  S
O510       Zr515   2.392       .  S
O510       Zr516   2.380       .  S
O510        H545   0.966       .  S
O511       Zr514   2.399       .  S
O511       Zr531   2.385       .  S
O511        H548   0.965       .  S
O512       Zr515   2.386       .  S
O512       Zr531   2.384       .  S
Zr513       O538   2.441       .  S
Zr513       O532   2.431       .  S
Zr513       O540   2.447       .  S
Zr513       O528   2.447       .  S
Zr513       O519   2.398       .  S
Zr513       O520   2.406       .  S
Zr513       O521   2.385       .  S
Zr513       O522   2.383       .  S
Zr514       O533   2.436       .  S
Zr514       O526   2.433       .  S
Zr514       O527   2.429       .  S
Zr514       O520   2.399       .  S
Zr514       O521   2.387       .  S
Zr515       O517   2.434       .  S
Zr515       O539   2.437       .  S
Zr515       O541   2.404       .  S
Zr515       O519   2.388       .  S
Zr515       O522   2.383       .  S
Zr516       O542   2.434       .  S
Zr516       O543   2.437       .  S
Zr516       O518   2.438       .  S
Zr516       O519   2.388       .  S
Zr516       O520   2.384       .  S
O517        H554   0.990       .  S
O518        H549   0.990       .  S
O518        H563   0.990       .  S
O520        H546   0.965       .  S
O521       Zr531   2.382       .  S
O522       Zr531   2.377       .  S
O522        H547   0.966       .  S
C523       C1051   1.469       .  S
C524        C998   1.475       .  S
C525       C1008   1.481       .  S
O526        H562   0.989       .  S
O527        C529   1.284       .  A
O528        C529   1.286       .  A
C529       C1018   1.481       .  S
O530       Zr531   2.438       .  S
O530        H559   0.990       .  S
Zr531       O534   2.437       .  S
Zr531       O535   2.438       .  S
Zr531       O536   2.392       .  S
O532        C537   1.283       .  A
O533        H550   0.990       .  S
O533        H565   0.990       .  S
O534        H551   0.990       .  S
O535        H555   0.990       .  S
O535        H564   0.988       .  S
O536        C537   1.276       .  A
C537       C1038   1.457       .  S
O538        H557   0.990       .  S
O538        H561   0.990       .  S
O539        H553   0.990       .  S
O539        H560   0.990       .  S
O540        C544   1.287       .  A
O541        C544   1.280       .  A
O542        H552   0.990       .  S
O543        H556   0.990       .  S
C544       C1031   1.474       .  S
Zr567       O568   2.441       .  S
Zr567       O569   2.430       .  S
Zr567       O570   2.459       .  S
Zr567       O573   2.439       .  S
Zr567       O575   2.385       .  S
Zr567       O576   2.390       .  S
Zr567       O577   2.407       .  S
Zr567       O578   2.396       .  S
O568        H624   0.990       .  S
O568        H632   0.990       .  S
O569        C589   1.282       .  A
O570        C591   1.287       .  A
O571       Zr581   2.396       .  S
O571        C590   1.277       .  A
O572       Zr580   2.409       .  S
O572        C591   1.280       .  A
O573        C590   1.285       .  A
O574       Zr582   2.414       .  S
O574        C589   1.281       .  A
O575       Zr580   2.391       .  S
O575       Zr582   2.382       .  S
O576       Zr581   2.385       .  S
O576       Zr582   2.376       .  S
O576        H611   0.966       .  S
O577       Zr580   2.398       .  S
O577       Zr597   2.387       .  S
O577        H614   0.965       .  S
O578       Zr581   2.387       .  S
O578       Zr597   2.382       .  S
Zr579       O604   2.441       .  S
Zr579       O598   2.446       .  S
Zr579       O606   2.432       .  S
Zr579       O594   2.437       .  S
Zr579       O585   2.404       .  S
Zr579       O586   2.408       .  S
Zr579       O587   2.380       .  S
Zr579       O588   2.382       .  S
Zr580       O599   2.436       .  S
Zr580       O592   2.435       .  S
Zr580       O593   2.409       .  S
Zr580       O586   2.393       .  S
Zr580       O587   2.393       .  S
Zr581       O583   2.434       .  S
Zr581       O605   2.437       .  S
Zr581       O607   2.406       .  S
Zr581       O585   2.381       .  S
Zr581       O588   2.388       .  S
Zr582       O608   2.435       .  S
Zr582       O609   2.437       .  S
Zr582       O584   2.437       .  S
Zr582       O585   2.392       .  S
Zr582       O586   2.392       .  S
O583        H620   0.990       .  S
O584        H615   0.990       .  S
O584        H629   0.990       .  S
O586        H612   0.971       .  S
O587       Zr597   2.379       .  S
O588       Zr597   2.380       .  S
O588        H613   0.966       .  S
C589        C961   1.472       .  S
C590        C978   1.460       .  S
C591        C948   1.477       .  S
O592        H628   0.990       .  S
O593        C595   1.279       .  A
O594        C595   1.283       .  A
C595        C988   1.461       .  S
O596       Zr597   2.440       .  S
O596        H625   0.990       .  S
Zr597       O600   2.436       .  S
Zr597       O601   2.439       .  S
Zr597       O602   2.410       .  S
O598        C603   1.286       .  A
O599        H616   0.990       .  S
O599        H631   0.990       .  S
O600        H617   0.990       .  S
O601        H621   0.990       .  S
O601        H630   0.990       .  S
O602        C603   1.280       .  A
C603        C938   1.481       .  S
O604        H623   0.990       .  S
O604        H627   0.990       .  S
O605        H619   0.990       .  S
O605        H626   0.990       .  S
O606        C610   1.284       .  A
O607        C610   1.280       .  A
O608        H618   0.990       .  S
O609        H622   0.990       .  S
C610        C971   1.468       .  S
N633        C638   1.351   1_455  A
N633        C637   1.349       .  A
N633        H665   1.036       .  S
N634        C641   1.348       .  A
N634        C642   1.347       .  A
N635        C640   1.354       .  A
N635        C639   1.354   1_655  A
N635        H666   1.038       .  S
N636        C643   1.348       .  A
N636        C644   1.347   1_565  A
C637        C645   1.389   1_565  A
C637        C653   1.409   1_565  A
C638        C654   1.407       .  A
C638        C646   1.387   1_665  A
C639        C647   1.387   1_445  A
C639        C656   1.414       .  A
C640        C655   1.414       .  A
C640        C648   1.387   1_545  A
C641        C653   1.403       .  A
C641        C649   1.385       .  A
C642        C656   1.409       .  A
C642        C650   1.390       .  A
C643        C651   1.385       .  A
C643        C654   1.406       .  A
C644        C652   1.388       .  A
C644        C655   1.406       .  A
C645        C646   1.367       .  A
C645        H657   1.082       .  S
C646        H658   1.083   1_455  S
C647        C648   1.374       .  A
C647        H659   1.083   1_655  S
C648        H660   1.082       .  S
C649        C650   1.364       .  A
C649        H661   1.083       .  S
C650        H662   1.082       .  S
C651        C652   1.364   1_565  A
C651        H663   1.080       .  S
C652        H664   1.082       .  S
C653        C671   1.456       .  S
C654        C759   1.462       .  S
C655        C849   1.466   1_545  S
C656        C831   1.467       .  S
C667        N668   1.360   1_565  A
C667        N672   1.356       .  A
C667       C1048   1.469       .  S
N668        C669   1.359       .  A
C669        N670   1.347       .  A
C669        C928   1.456       .  S
N670        C671   1.347       .  A
C671        N672   1.353   1_545  A
Zr673       O674   2.440       .  S
Zr673       O675   2.442       .  S
Zr673       O676   2.451       .  S
Zr673       O679   2.437       .  S
Zr673       O681   2.378       .  S
Zr673       O682   2.389       .  S
Zr673       O683   2.407       .  S
Zr673       O684   2.401       .  S
O674        H730   0.990       .  S
O674        H738   0.990       .  S
O675        C695   1.284       .  A
O676        C697   1.286       .  A
O677       Zr687   2.393       .  S
O677        C696   1.278       .  A
O678       Zr686   2.393       .  S
O678        C697   1.276       .  A
O679        C696   1.284       .  A
O680       Zr688   2.412       .  S
O680        C695   1.279       .  A
O681       Zr686   2.388       .  S
O681       Zr688   2.382       .  S
O682       Zr687   2.388       .  S
O682       Zr688   2.377       .  S
O682        H717   0.966       .  S
O683       Zr686   2.390       .  S
O683       Zr703   2.392       .  S
O683        H720   0.965       .  S
O684       Zr687   2.384       .  S
O684       Zr703   2.382       .  S
Zr685       O710   2.439       .  S
Zr685       O704   2.434       .  S
Zr685       O712   2.453       .  S
Zr685       O700   2.451       .  S
Zr685       O691   2.402       .  S
Zr685       O692   2.413       .  S
Zr685       O693   2.381       .  S
Zr685       O694   2.379       .  S
Zr686       O705   2.438       .  S
Zr686       O698   2.434       .  S
Zr686       O699   2.380       .  S
Zr686       O692   2.397       .  S
Zr686       O693   2.384       .  S
Zr687       O689   2.436       .  S
Zr687       O711   2.436       .  S
Zr687       O713   2.402       .  S
Zr687       O691   2.384       .  S
Zr687       O694   2.389       .  S
Zr688       O714   2.437       .  S
Zr688       O715   2.435       .  S
Zr688       O690   2.436       .  S
Zr688       O691   2.393       .  S
Zr688       O692   2.389       .  S
O689        H726   0.990       .  S
O690        H721   0.990       .  S
O690        H735   0.989       .  S
O692        H718   0.965       .  S
O693       Zr703   2.374       .  S
O694       Zr703   2.385       .  S
O694        H719   0.966       .  S
C695        C908   1.482       .  S
C696        C888   1.458       .  S
C697        C898   1.468       .  S
O698        H734   0.989       .  S
O699        C701   1.275       .  A
O700        C701   1.286       .  A
C701        C931   1.468       .  S
O702       Zr703   2.440       .  S
O702        H731   0.990       .  S
Zr703       O706   2.437       .  S
Zr703       O707   2.442       .  S
Zr703       O708   2.407       .  S
O704        C709   1.283       .  A
O705        H722   0.990       .  S
O705        H737   0.990       .  S
O706        H723   0.990       .  S
O707        H727   0.990       .  S
O707        H736   0.989       .  S
O708        C709   1.279       .  A
C709        C878   1.479       .  S
O710        H729   0.989       .  S
O710        H733   0.990       .  S
O711        H725   0.990       .  S
O711        H732   0.990       .  S
O712        C716   1.288       .  A
O713        C716   1.278       .  A
O714        H724   0.990       .  S
O715        H728   0.990       .  S
C716        C918   1.472       .  S
C739        N740   1.364       .  A
C739        N744   1.350       .  A
C739        C921   1.474       .  S
N740        C741   1.366       .  A
C741        N742   1.361   1_455  A
N742        C743   1.358       .  A
C743        N744   1.348   1_655  A
C743        C991   1.463       .  S
C745        N746   1.358   1_556  A
C745        N750   1.362       .  A
C745       C1171   1.482       .  S
N746        C747   1.358       .  A
C747        N748   1.356       .  A
C747        C911   1.474       .  S
N748        C749   1.357       .  A
C749        N750   1.362   1_554  A
C751        N752   1.351       .  A
C751        N756   1.358       .  A
C751        C901   1.469       .  S
N752        C753   1.350       .  A
C753        N754   1.354       .  A
C753        C981   1.458       .  S
N754        C755   1.358       .  A
C755        N756   1.361       .  A
C757        N758   1.353       .  A
C757        N762   1.358       .  A
C757       C1101   1.466       .  S
N758        C759   1.354       .  A
C759        N760   1.354   1_565  A
N760        C761   1.353       .  A
C761        N762   1.358   1_545  A
C761        C968   1.465       .  S
C763        N764   1.355       .  A
C763        N768   1.357       .  A
C763        C958   1.469       .  S
N764        C765   1.356       .  A
C765        N766   1.358   1_554  A
N766        C767   1.358       .  A
C767        N768   1.355   1_556  A
C767       C1221   1.470       .  S
C769        N770   1.354       .  A
C769        N774   1.361       .  A
C769       C1071   1.473       .  S
N770        C771   1.353       .  A
C771        N772   1.356       .  A
N772        C773   1.357       .  A
C773        N774   1.361       .  A
C773        C951   1.477       .  S
C775        N776   1.358       .  A
C775        N780   1.358       .  A
C775        C941   1.475       .  S
N776        C777   1.358       .  A
C777        N778   1.358       .  A
N778        C779   1.358       .  A
C779        N780   1.357       .  A
C779       C1181   1.472       .  S
C781        N782   1.359       .  A
C781        N786   1.353       .  A
C781       C1041   1.466       .  S
N782        C783   1.358       .  A
C783        N784   1.350       .  A
C783        C891   1.464       .  S
N784        C785   1.351       .  A
C785        N786   1.349       .  A
C787        N788   1.353       .  A
C787        N792   1.357       .  A
C787       C1028   1.467       .  S
N788        C789   1.355   1_455  A
C789        N790   1.364       .  A
N790        C791   1.364       .  A
C791        N792   1.358   1_655  A
C791       C1111   1.485       .  S
C793        N794   1.356       .  A
C793        N798   1.356   1_556  A
C793       C1278   1.482       .  S
N794        C795   1.357   1_556  A
C795        N796   1.359       .  A
N796        C797   1.358       .  A
C797        N798   1.354       .  A
C797       C1021   1.478       .  S
C799        N800   1.358       .  A
C799        N804   1.358       .  A
C799       C1011   1.475       .  S
N800        C801   1.359       .  A
C801        N802   1.366       .  A
N802        C803   1.365       .  A
C803        N804   1.358       .  A
C803       C1091   1.488       .  S
C805        N806   1.355       .  A
C805        N810   1.355       .  A
C805       C1241   1.475       .  S
N806        C807   1.357       .  A
C807        N808   1.362       .  A
N808        C809   1.361       .  A
C809        N810   1.354       .  A
C809       C1001   1.478       .  S
C811        N812   1.357       .  A
C811        N816   1.359       .  A
C811       C1081   1.505       .  S
N812        C813   1.356   1_554  A
C813        N814   1.355       .  A
C813       C1331   1.478       .  S
N814        C815   1.357   1_556  A
C815        N816   1.360       .  A
C817        N818   1.362       .  A
C817        N822   1.357       .  A
C817       C1161   1.475       .  S
N818        C819   1.361       .  A
C819        N820   1.354       .  A
N820        C821   1.353       .  A
C821        N822   1.356       .  A
C821        C881   1.464       .  S
C823        N824   1.366       .  A
C823        N828   1.363       .  A
C823       C1231   1.494       .  S
N824        C825   1.365   1_655  A
C825        N826   1.360       .  A
C825       C1151   1.499       .  S
N826        C827   1.358   1_455  A
C827        N828   1.362       .  A
C829        N830   1.357       .  A
C829        N834   1.360       .  A
C829       C1141   1.479       .  S
N830        C831   1.357       .  A
C831        N832   1.355   1_545  A
N832        C833   1.353       .  A
C833        N834   1.359   1_565  A
C833       C1291   1.469       .  S
C835        N836   1.365       .  A
C835        N840   1.362       .  A
C835       C1211   1.492       .  S
N836        C837   1.366       .  A
C837        N838   1.361       .  A
C837       C1131   1.498       .  S
N838        C839   1.360       .  A
C839        N840   1.362       .  A
C841        N842   1.353       .  A
C841        N846   1.356       .  A
C841       C1121   1.471       .  S
N842        C843   1.355       .  A
C843        N844   1.359       .  A
N844        C845   1.358       .  A
C845        N846   1.358       .  A
C845       C1268   1.472       .  S
C847        N848   1.357       .  A
C847        N852   1.356   1_545  A
C847       C1201   1.475       .  S
N848        C849   1.356   1_545  A
C849        N850   1.356       .  A
N850        C851   1.353       .  A
C851        N852   1.354       .  A
C851       C1341   1.475       .  S
C853        N854   1.352       .  A
C853        N858   1.356       .  A
C853       C1351   1.464       .  S
N854        C855   1.354       .  A
C855        N856   1.364   1_655  A
N856        C857   1.366       .  A
C857        N858   1.357   1_455  A
C857       C1261   1.486       .  S
C859        N860   1.359       .  A
C859        N864   1.351       .  A
C859       C1321   1.465       .  S
N860        C861   1.360       .  A
C861        N862   1.360       .  A
C861       C1251   1.480       .  S
N862        C863   1.358       .  A
C863        N864   1.353       .  A
C865        N866   1.352       .  A
C865        N870   1.360       .  A
C865       C1191   1.483       .  S
N866        C867   1.352       .  A
C867        N868   1.348       .  A
C867       C1311   1.470       .  S
N868        C869   1.352       .  A
C869        N870   1.358       .  A
C871        N872   1.357       .  A
C871        N876   1.357       .  A
C871       C1058   1.480       .  S
N872        C873   1.358       .  A
C873        N874   1.361       .  A
N874        C875   1.361       .  A
C875        N876   1.357       .  A
C875       C1301   1.477       .  S
C877        C878   1.414       .  A
C877        C882   1.404       .  A
C877       Br884   1.931       .  S
C878        C879   1.417       .  A
C879        C880   1.404       .  A
C879       Br886   1.931       .  S
C880        C881   1.404       .  A
C880       Br885   1.932       .  S
C881        C882   1.406       .  A
C882       Br883   1.931       .  S
C887        C888   1.405       .  A
C887        C892   1.398       .  A
C887       Br894   1.930       .  S
C888        C889   1.408       .  A
C889        C890   1.405       .  A
C889       Br896   1.930       .  S
C890        C891   1.409       .  A
C890       Br895   1.931       .  S
C891        C892   1.411       .  A
C892       Br893   1.935       .  S
C897        C898   1.411       .  A
C897        C902   1.406       .  A
C897       Br904   1.932       .  S
C898        C899   1.409       .  A
C899        C900   1.403       .  A
C899       Br906   1.933       .  S
C900        C901   1.410       .  A
C900       Br905   1.931       .  S
C901        C902   1.409       .  A
C902       Br903   1.931       .  S
C907        C908   1.413       .  A
C907        C912   1.409       .  A
C907       Br914   1.929       .  S
C908        C909   1.412       .  A
C909        C910   1.405       .  A
C909       Br916   1.927       .  S
C910        C911   1.408       .  A
C910       Br915   1.933       .  S
C911        C912   1.410       .  A
C912       Br913   1.930       .  S
C917        C918   1.410       .  A
C917        C922   1.409       .  A
C917       Br924   1.930       .  S
C918        C919   1.407       .  A
C919        C920   1.406       .  A
C919       Br926   1.931       .  S
C920        C921   1.412       .  A
C920       Br925   1.931       .  S
C921        C922   1.410       .  A
C922       Br923   1.930       .  S
C927        C928   1.405       .  A
C927        C932   1.403       .  A
C927       Br934   1.931       .  S
C928        C929   1.403       .  A
C929        C930   1.401       .  A
C929       Br936   1.933       .  S
C930        C931   1.414       .  A
C930       Br935   1.932       .  S
C931        C932   1.412       .  A
C932       Br933   1.929       .  S
C937        C938   1.413       .  A
C937        C942   1.410       .  A
C937       Br944   1.931       .  S
C938        C939   1.413       .  A
C939        C940   1.406       .  A
C939       Br946   1.931       .  S
C940        C941   1.408       .  A
C940       Br945   1.932       .  S
C941        C942   1.410       .  A
C942       Br943   1.930       .  S
C947        C948   1.412       .  A
C947        C952   1.410       .  A
C947       Br954   1.930       .  S
C948        C949   1.409       .  A
C949        C950   1.405       .  A
C949       Br956   1.932       .  S
C950        C951   1.410       .  A
C950       Br955   1.927       .  S
C951        C952   1.410       .  A
C952       Br953   1.929       .  S
C957        C958   1.409       .  A
C957        C962   1.406       .  A
C957       Br964   1.931       .  S
C958        C959   1.408       .  A
C959        C960   1.405       .  A
C959       Br966   1.932       .  S
C960        C961   1.411       .  A
C960       Br965   1.931       .  S
C961        C962   1.410       .  A
C962       Br963   1.932       .  S
C967        C968   1.406       .  A
C967        C972   1.407       .  A
C967       Br974   1.929       .  S
C968        C969   1.408       .  A
C969        C970   1.401       .  A
C969       Br976   1.930       .  S
C970        C971   1.409       .  A
C970       Br975   1.932       .  S
C971        C972   1.411       .  A
C972       Br973   1.930       .  S
C977        C978   1.408       .  A
C977        C982   1.402       .  A
C977       Br984   1.930       .  S
C978        C979   1.407       .  A
C979        C980   1.404       .  A
C979       Br986   1.930       .  S
C980        C981   1.406       .  A
C980       Br985   1.929       .  S
C981        C982   1.405       .  A
C982       Br983   1.930       .  S
C987        C988   1.408       .  A
C987        C992   1.401       .  A
C987       Br994   1.930       .  S
C988        C989   1.406       .  A
C989        C990   1.406       .  A
C989       Br996   1.930       .  S
C990        C991   1.411       .  A
C990       Br995   1.928       .  S
C991        C992   1.406       .  A
C992       Br993   1.933       .  S
C997        C998   1.411       .  A
C997       C1002   1.409       .  A
C997      Br1004   1.929       .  S
C998        C999   1.406       .  A
C999       C1000   1.408       .  A
C999      Br1006   1.930       .  S
C1000      C1001   1.412       .  A
C1000     Br1005   1.929       .  S
C1001      C1002   1.411       .  A
C1002     Br1003   1.931       .  S
C1007      C1008   1.413       .  A
C1007      C1012   1.410       .  A
C1007     Br1014   1.929       .  S
C1008      C1009   1.412       .  A
C1009      C1010   1.408       .  A
C1009     Br1016   1.930       .  S
C1010      C1011   1.408       .  A
C1010     Br1015   1.930       .  S
C1011      C1012   1.408       .  A
C1012     Br1013   1.929       .  S
C1017      C1018   1.413       .  A
C1017      C1022   1.408       .  A
C1017     Br1024   1.932       .  S
C1018      C1019   1.410       .  A
C1019      C1020   1.408       .  A
C1019     Br1026   1.928       .  S
C1020      C1021   1.412       .  A
C1020     Br1025   1.932       .  S
C1021      C1022   1.412       .  A
C1022     Br1023   1.934       .  S
C1027      C1028   1.406       .  A
C1027      C1032   1.405       .  A
C1027     Br1034   1.932       .  S
C1028      C1029   1.406       .  A
C1029      C1030   1.407       .  A
C1029     Br1036   1.929       .  S
C1030      C1031   1.411       .  A
C1030     Br1035   1.929       .  S
C1031      C1032   1.413       .  A
C1032     Br1033   1.930       .  S
C1037      C1038   1.405       .  A
C1037      C1042   1.400       .  A
C1037     Br1044   1.933       .  S
C1038      C1039   1.405       .  A
C1039      C1040   1.404       .  A
C1039     Br1046   1.929       .  S
C1040      C1041   1.410       .  A
C1040     Br1045   1.931       .  S
C1041      C1042   1.414       .  A
C1042     Br1043   1.935       .  S
C1047      C1048   1.409       .  A
C1047      C1052   1.408       .  A
C1047     Br1054   1.930       .  S
C1048      C1049   1.409       .  A
C1049      C1050   1.402       .  A
C1049     Br1056   1.932       .  S
C1050      C1051   1.409       .  A
C1050     Br1055   1.933       .  S
C1051      C1052   1.410       .  A
C1052     Br1053   1.930       .  S
C1057      C1058   1.412       .  A
C1057      C1062   1.409       .  A
C1057     Br1064   1.932       .  S
C1058      C1059   1.411       .  A
C1059      C1060   1.407       .  A
C1059     Br1066   1.932       .  S
C1060      C1061   1.412       .  A
C1060     Br1065   1.931       .  S
C1061      C1062   1.412       .  A
C1062     Br1063   1.932       .  S
C1067      C1068   1.410       .  A
C1067      C1072   1.405       .  A
C1067     Br1074   1.930       .  S
C1068      C1069   1.411       .  A
C1069      C1070   1.408       .  A
C1069     Br1076   1.930       .  S
C1070      C1071   1.408       .  A
C1070     Br1075   1.929       .  S
C1071      C1072   1.411       .  A
C1072     Br1073   1.934       .  S
C1077      C1078   1.408       .  A
C1077      C1082   1.406       .  A
C1077     Br1084   1.937       .  S
C1078      C1079   1.404       .  A
C1079      C1080   1.414       .  A
C1079     Br1086   1.932       .  S
C1080      C1081   1.428       .  A
C1080     Br1085   1.934       .  S
C1081      C1082   1.426       .  A
C1082     Br1083   1.942       .  S
C1087      C1088   1.412       .  A
C1087      C1092   1.412       .  A
C1087     Br1094   1.929       .  S
C1088      C1089   1.411       .  A
C1089      C1090   1.414       .  A
C1089     Br1096   1.928       .  S
C1090      C1091   1.412       .  A
C1090     Br1095   1.928       .  S
C1091      C1092   1.411       .  A
C1092     Br1093   1.930       .  S
C1097      C1098   1.414       .  A
C1097      C1102   1.406       .  A
C1097     Br1104   1.932       .  S
C1098      C1099   1.415       .  A
C1099      C1100   1.405       .  A
C1099     Br1106   1.931       .  S
C1100      C1101   1.404       .  A
C1100     Br1105   1.932       .  S
C1101      C1102   1.407       .  A
C1102     Br1103   1.931       .  S
C1107      C1108   1.411       .  A
C1107      C1112   1.413       .  A
C1107     Br1114   1.929       .  S
C1108      C1109   1.416       .  A
C1109      C1110   1.412       .  A
C1109     Br1116   1.928       .  S
C1110      C1111   1.408       .  A
C1110     Br1115   1.931       .  S
C1111      C1112   1.413       .  A
C1112     Br1113   1.930       .  S
C1117      C1118   1.415       .  A
C1117      C1122   1.404       .  A
C1117     Br1124   1.932       .  S
C1118      C1119   1.410       .  A
C1119      C1120   1.409       .  A
C1119     Br1126   1.929       .  S
C1120      C1121   1.411       .  A
C1120     Br1125   1.930       .  S
C1121      C1122   1.407       .  A
C1122     Br1123   1.935       .  S
C1127      C1128   1.410       .  A
C1127      C1132   1.416       .  A
C1127     Br1134   1.929       .  S
C1128      C1129   1.411       .  A
C1129      C1130   1.414       .  A
C1129     Br1136   1.930       .  S
C1130      C1131   1.414       .  A
C1130     Br1135   1.928       .  S
C1131      C1132   1.417       .  A
C1132     Br1133   1.931       .  S
C1137      C1138   1.412       .  A
C1137      C1142   1.403       .  A
C1137     Br1144   1.933       .  S
C1138      C1139   1.409       .  A
C1139      C1140   1.412       .  A
C1139     Br1146   1.929       .  S
C1140      C1141   1.414       .  A
C1140     Br1145   1.930       .  S
C1141      C1142   1.410       .  A
C1142     Br1143   1.933       .  S
C1147      C1148   1.409       .  A
C1147      C1152   1.414       .  A
C1147     Br1154   1.931       .  S
C1148      C1149   1.407       .  A
C1149      C1150   1.413       .  A
C1149     Br1156   1.929       .  S
C1150      C1151   1.418       .  A
C1150     Br1155   1.932       .  S
C1151      C1152   1.417       .  A
C1152     Br1153   1.925       .  S
C1157      C1158   1.409       .  A
C1157      C1162   1.409       .  A
C1157     Br1164   1.926       .  S
C1158      C1159   1.410       .  A
C1159      C1160   1.409       .  A
C1159     Br1166   1.928       .  S
C1160      C1161   1.408       .  A
C1160     Br1165   1.930       .  S
C1161      C1162   1.408       .  A
C1162     Br1163   1.929       .  S
C1167      C1168   1.412       .  A
C1167      C1172   1.412       .  A
C1167     Br1174   1.929       .  S
C1168      C1169   1.412       .  A
C1169      C1170   1.412       .  A
C1169     Br1176   1.930       .  S
C1170      C1171   1.410       .  A
C1170     Br1175   1.930       .  S
C1171      C1172   1.410       .  A
C1172     Br1173   1.931       .  S
C1177      C1178   1.411       .  A
C1177      C1182   1.409       .  A
C1177     Br1184   1.929       .  S
C1178      C1179   1.407       .  A
C1179      C1180   1.407       .  A
C1179     Br1186   1.928       .  S
C1180      C1181   1.408       .  A
C1180     Br1185   1.928       .  S
C1181      C1182   1.408       .  A
C1182     Br1183   1.930       .  S
C1187      C1188   1.404       .  A
C1187      C1192   1.401       .  A
C1187     Br1194   1.934       .  S
C1188      C1189   1.408       .  A
C1189      C1190   1.407       .  A
C1189     Br1196   1.932       .  S
C1190      C1191   1.417       .  A
C1190     Br1195   1.933       .  S
C1191      C1192   1.422       .  A
C1192     Br1193   1.939       .  S
C1197      C1198   1.413       .  A
C1197      C1202   1.401       .  A
C1197     Br1204   1.933       .  S
C1198      C1199   1.415       .  A
C1199      C1200   1.410       .  A
C1199     Br1206   1.931       .  S
C1200      C1201   1.412       .  A
C1200     Br1205   1.934       .  S
C1201      C1202   1.411       .  A
C1202     Br1203   1.939       .  S
C1207      C1208   1.415       .  A
C1207      C1212   1.415       .  A
C1207     Br1214   1.929       .  S
C1208      C1209   1.416       .  A
C1209      C1210   1.414       .  A
C1209     Br1216   1.932       .  S
C1210      C1211   1.411       .  A
C1210     Br1215   1.929       .  S
C1211      C1212   1.411       .  A
C1212     Br1213   1.927       .  S
C1217      C1218   1.411       .  A
C1217      C1222   1.406       .  A
C1217     Br1224   1.931       .  S
C1218      C1219   1.411       .  A
C1219      C1220   1.408       .  A
C1219     Br1226   1.931       .  S
C1220      C1221   1.408       .  A
C1220     Br1225   1.930       .  S
C1221      C1222   1.407       .  A
C1222     Br1223   1.932       .  S
C1227      C1228   1.413       .  A
C1227      C1232   1.414       .  A
C1227     Br1234   1.931       .  S
C1228      C1229   1.411       .  A
C1229      C1230   1.414       .  A
C1229     Br1236   1.929       .  S
C1230      C1231   1.413       .  A
C1230     Br1235   1.928       .  S
C1231      C1232   1.413       .  A
C1232     Br1233   1.926       .  S
C1237      C1238   1.422       .  A
C1237      C1242   1.403       .  A
C1237     Br1244   1.935       .  S
C1238      C1239   1.416       .  A
C1239      C1240   1.409       .  A
C1239     Br1246   1.934       .  S
C1240      C1241   1.411       .  A
C1240     Br1245   1.931       .  S
C1241      C1242   1.408       .  A
C1242     Br1243   1.941       .  S
C1247      C1248   1.412       .  A
C1247      C1252   1.407       .  A
C1247     Br1254   1.933       .  S
C1248      C1249   1.409       .  A
C1249      C1250   1.411       .  A
C1249     Br1256   1.929       .  S
C1250      C1251   1.412       .  A
C1250     Br1255   1.930       .  S
C1251      C1252   1.410       .  A
C1252     Br1253   1.930       .  S
C1257      C1258   1.411       .  A
C1257      C1262   1.409       .  A
C1257     Br1264   1.930       .  S
C1258      C1259   1.411       .  A
C1259      C1260   1.412       .  A
C1259     Br1266   1.932       .  S
C1260      C1261   1.415       .  A
C1260     Br1265   1.929       .  S
C1261      C1262   1.410       .  A
C1262     Br1263   1.930       .  S
C1267      C1268   1.409       .  A
C1267      C1272   1.405       .  A
C1267     Br1274   1.931       .  S
C1268      C1269   1.411       .  A
C1269      C1270   1.408       .  A
C1269     Br1276   1.930       .  S
C1270      C1271   1.408       .  A
C1270     Br1275   1.930       .  S
C1271      C1272   1.408       .  A
C1272     Br1273   1.930       .  S
C1277      C1278   1.413       .  A
C1277      C1282   1.403       .  A
C1277     Br1284   1.939       .  S
C1278      C1279   1.415       .  A
C1279      C1280   1.409       .  A
C1279     Br1286   1.934       .  S
C1280      C1281   1.414       .  A
C1280     Br1285   1.935       .  S
C1281      C1282   1.415       .  A
C1282     Br1283   1.934       .  S
C1287      C1288   1.409       .  A
C1287      C1292   1.408       .  A
C1287     Br1294   1.929       .  S
C1288      C1289   1.413       .  A
C1289      C1290   1.406       .  A
C1289     Br1296   1.929       .  S
C1290      C1291   1.405       .  A
C1290     Br1295   1.931       .  S
C1291      C1292   1.409       .  A
C1292     Br1293   1.930       .  S
C1297      C1298   1.411       .  A
C1297      C1302   1.409       .  A
C1297     Br1304   1.929       .  S
C1298      C1299   1.413       .  A
C1299      C1300   1.410       .  A
C1299     Br1306   1.929       .  S
C1300      C1301   1.409       .  A
C1300     Br1305   1.929       .  S
C1301      C1302   1.409       .  A
C1302     Br1303   1.931       .  S
C1307      C1308   1.407       .  A
C1307      C1312   1.400       .  A
C1307     Br1314   1.936       .  S
C1308      C1309   1.408       .  A
C1309      C1310   1.400       .  A
C1309     Br1316   1.934       .  S
C1310      C1311   1.411       .  A
C1310     Br1315   1.934       .  S
C1311      C1312   1.417       .  A
C1312     Br1313   1.934       .  S
C1317      C1318   1.411       .  A
C1317      C1322   1.405       .  A
C1317     Br1324   1.927       .  S
C1318      C1319   1.413       .  A
C1319      C1320   1.405       .  A
C1319     Br1326   1.931       .  S
C1320      C1321   1.405       .  A
C1320     Br1325   1.931       .  S
C1321      C1322   1.405       .  A
C1322     Br1323   1.929       .  S
C1327      C1328   1.408       .  A
C1327      C1332   1.408       .  A
C1327     Br1334   1.924       .  S
C1328      C1329   1.409       .  A
C1329      C1330   1.409       .  A
C1329     Br1336   1.931       .  S
C1330      C1331   1.413       .  A
C1330     Br1335   1.931       .  S
C1331      C1332   1.409       .  A
C1332     Br1333   1.931       .  S
C1337      C1338   1.406       .  A
C1337      C1342   1.405       .  A
C1337     Br1344   1.932       .  S
C1338      C1339   1.406       .  A
C1339      C1340   1.401       .  A
C1339     Br1346   1.935       .  S
C1340      C1341   1.417       .  A
C1340     Br1345   1.936       .  S
C1341      C1342   1.414       .  A
C1342     Br1343   1.932       .  S
C1347      C1348   1.412       .  A
C1347      C1352   1.405       .  A
C1347     Br1354   1.931       .  S
C1348      C1349   1.411       .  A
C1349      C1350   1.403       .  A
C1349     Br1356   1.928       .  S
C1350      C1351   1.404       .  A
C1350     Br1355   1.930       .  S
C1351      C1352   1.406       .  A
C1352     Br1353   1.931       .  S
