geometry optimzed in LAMMPS
_audit_creation_date              2020-11-30 
_audit_creation_method            'lammps2cif' 
_symmetry_space_group_name_H-M    'P1' 
_symmetry_Int_Tables_number       1 
_symmetry_cell_setting            triclinic 
loop_ 
_symmetry_equiv_pos_as_xyz 
  x,y,z 
_cell_length_a                    29.59712017 
_cell_length_b                    29.83065516404483 
_cell_length_c                    42.944650475482895 
_cell_angle_alpha                 89.87637900424879 
_cell_angle_beta                  88.77041255942122 
_cell_angle_gamma                 89.0951499469097 
loop_ 
_atom_site_label 
_atom_site_type_symbol 
_atom_site_fract_x 
_atom_site_fract_y 
_atom_site_fract_z 
_atom_site_charge 
C1          C  0.86220092  0.84804182  0.89056682    -0.02400
C2          C  0.09307491  0.09878614  0.88749461    -0.02400
C3          C  0.38528107  0.61345781  0.63107828    -0.02400
C4          C  0.62083932  0.36121152  0.62119171    -0.02400
O5          O  0.95345097  0.46565906  0.70055473    -0.57700
C6          C  0.08073351  0.51110212  0.72104140     0.74900
O7          O  0.99066706  0.52905290  0.79504366    -0.58900
C8          C  0.91677183  0.45794357  0.71530127     0.74900
C9          C  0.01731109  0.39509229  0.77918438     0.77300
Cd10       Cd  0.99688661  0.47977657  0.74880225     1.37500
O11         O  0.04970409  0.49597827  0.70424056    -0.57700
O12         O  0.03330006  0.40497232  0.75255660    -0.56500
C13         C  0.96782665  0.55969201  0.78190241     0.77200
O14         O  0.99212400  0.42457030  0.79210589    -0.58900
O15         O  0.07229300  0.51171051  0.75001867    -0.57400
O16         O  0.91829239  0.45976016  0.74463394    -0.57400
O17         O  0.95897408  0.55318544  0.75358854    -0.56500
O18         O  0.53264050  0.97008629  0.81031149    -0.57700
C19         C  0.40447184  0.02076187  0.79492939     0.74900
O20         O  0.49914794  0.04298319  0.71788167    -0.58900
C21         C  0.57062335  0.96941871  0.79616122     0.74900
C22         C  0.46797787  0.91094281  0.73247583     0.77300
Cd23       Cd  0.48836500  0.99414160  0.76418042     1.37500
O24         O  0.43729902  0.00507239  0.81023147    -0.57700
O25         O  0.45486125  0.91915083  0.76008934    -0.56500
C26         C  0.50917649  0.07798927  0.73278905     0.77200
O27         O  0.48962922  0.94187854  0.71891388    -0.58900
O28         O  0.41072108  0.02426651  0.76578998    -0.57400
O29         O  0.57033538  0.98109668  0.76787597    -0.57400
O30         O  0.50942408  0.07408969  0.76216280    -0.56500
C31         C  0.84741348  0.84243519  0.12471621    -0.02400
C32         C  0.08115062  0.08659614  0.12937597    -0.02400
C33         C  0.58794450  0.35444629  0.38419816    -0.02400
C34         C  0.34873245  0.60514485  0.39626450    -0.02400
O35         O  0.45995638  0.93016563  0.30281154    -0.57700
C36         C  0.49284588  0.05918057  0.28738763     0.74900
O37         O  0.51802805  0.97554308  0.20815081    -0.58900
C38         C  0.43717881  0.89968129  0.29036664     0.74900
C39         C  0.38307102  0.00321778  0.22667969     0.77300
Cd40       Cd  0.46664901  0.97779193  0.25556966     1.37500
O41         O  0.50378633  0.02076897  0.29751717    -0.57700
O42         O  0.38776757  0.00266816  0.25591566    -0.56500
C43         C  0.54432256  0.94577815  0.21899635     0.77200
O44         O  0.41735348  0.99078655  0.21043365    -0.58900
O45         O  0.47027078  0.05981589  0.26279116    -0.57400
O46         O  0.42679599  0.90624638  0.26227069    -0.57400
O47         O  0.53461231  0.93201317  0.24605359    -0.56500
O48         O  0.97438046  0.39275063  0.24966969    -0.57700
C49         C  0.95759521  0.55352749  0.23078026     0.74900
O50         O  0.93638071  0.43313833  0.30711953    -0.58900
C51         C  0.00749914  0.39092057  0.23061179     0.74900
C52         C  0.05649066  0.49200343  0.30480599     0.77300
Cd53       Cd  0.98094761  0.47153561  0.26513603     1.37500
O54         O  0.95909880  0.51563526  0.21744629    -0.57700
O55         O  0.06124537  0.47204723  0.27899067    -0.56500
C56         C  0.89804743  0.44440553  0.29680421     0.77200
O57         O  0.01620356  0.50139287  0.31325223    -0.58900
O58         O  0.96863984  0.55325738  0.25902795    -0.57400
O59         O  0.02793574  0.42746276  0.22609031    -0.57400
O60         O  0.89847969  0.46885867  0.27270283    -0.56500
C61         C  0.36187815  0.64995538  0.37912405    -0.19800
C62         C  0.33342423  0.68894579  0.38134528     0.36400
C63         C  0.34575202  0.72900551  0.36645997    -0.25800
C64         C  0.38700270  0.73260151  0.35030130     0.02900
C65         C  0.41698537  0.69558926  0.34936512     0.27700
C66         C  0.40454988  0.65519465  0.36394023    -0.24900
N67         N  0.29169765  0.68813765  0.39884061    -0.82300
H68         H  0.32313856  0.75789281  0.36800818     0.13500
C69         C  0.39898762  0.77585839  0.33528942     0.02800
N70         N  0.46025119  0.69931137  0.33375785    -0.80900
H71         H  0.42945953  0.62844019  0.36383619     0.18300
C72         C  0.43529280  0.80022773  0.34654195    -0.25700
C73         C  0.44772538  0.84138397  0.33301450     0.36300
C74         C  0.42364428  0.85818625  0.30722238    -0.19700
C75         C  0.38717963  0.83359277  0.29610127    -0.25000
C76         C  0.37450097  0.79276647  0.30994281     0.27700
H77         H  0.45383931  0.78709776  0.36613744     0.13500
N78         N  0.48549682  0.86524915  0.34486153    -0.82200
H79         H  0.36854376  0.84618064  0.27638996     0.18300
N80         N  0.33718983  0.76811785  0.29816257    -0.80800
H81         H  0.50129487  0.84668720  0.36233343     0.33900
H82         H  0.47271462  0.89433677  0.35560513     0.36000
H83         H  0.32254519  0.78519339  0.27955705     0.33900
H84         H  0.35007068  0.73778838  0.28925516     0.30600
H85         H  0.47878173  0.66930710  0.33540667     0.33900
H86         H  0.45443333  0.70452498  0.31008480     0.30600
H87         H  0.26548991  0.69722746  0.38403366     0.38500
H88         H  0.29305395  0.71232231  0.41637064     0.34000
C89         C  0.30372542  0.58465808  0.38398853    -0.19800
C90         C  0.28583004  0.54294049  0.39529803     0.36400
C91         C  0.24426680  0.52762620  0.38486317    -0.25800
C92         C  0.22009838  0.55088195  0.36225913     0.02900
C93         C  0.23839033  0.58979353  0.34901247     0.27700
C94         C  0.27993108  0.60556435  0.35938172    -0.24900
N95         N  0.30874715  0.51430612  0.41688712    -0.82300
H96         H  0.23105194  0.49651953  0.39412089     0.13500
C97         C  0.17725611  0.53249523  0.35072592     0.02800
N98         N  0.21490556  0.61285627  0.32458891    -0.80900
H99         H  0.29371865  0.63389322  0.34709431     0.18300
C100        C  0.13635730  0.55548134  0.35692429    -0.25700
C101        C  0.09585646  0.54194700  0.34334320     0.36300
C102        C  0.09645251  0.50447333  0.32315812    -0.19700
C103        C  0.13721244  0.48040038  0.31823134    -0.25000
C104        C  0.17759045  0.49409071  0.33170768     0.27700
H105        H  0.13641289  0.58497234  0.37161671     0.13500
N106        N  0.05475724  0.56721120  0.34903978    -0.82200
H107        H  0.13785461  0.45143184  0.30304072     0.18300
N108        N  0.21922684  0.46997924  0.32540797    -0.80800
H109        H  0.06004380  0.59305462  0.36490437     0.33900
H110        H  0.04592868  0.58264073  0.32810109     0.38400
H111        H  0.21368201  0.44233004  0.31113965     0.33900
H112        H  0.24059622  0.49127222  0.31279901     0.30600
H113        H  0.23234811  0.64144310  0.31747248     0.33900
H114        H  0.21447622  0.59147612  0.30534042     0.30600
H115        H  0.31841387  0.53214718  0.43641963     0.38500
H116        H  0.33668691  0.49920706  0.40579157     0.34000
C117        C  0.54920352  0.38893313  0.37647535    -0.19800
C118        C  0.55285450  0.42707479  0.35649153     0.36400
C119        C  0.51852827  0.46031006  0.35701705    -0.25800
C120        C  0.47944494  0.45551058  0.37556357     0.02900
C121        C  0.47190068  0.41443858  0.39080045     0.27700
C122        C  0.50623607  0.38144449  0.39056312    -0.24900
N123        N  0.58979157  0.43197490  0.33472425    -0.82300
H124        H  0.52306880  0.49066786  0.34347539     0.13500
C125        C  0.44803616  0.49435538  0.38052625     0.02800
N126        N  0.43002790  0.40718262  0.40752304    -0.80900
H127        H  0.50084794  0.35104261  0.40386917     0.18300
C128        C  0.42539788  0.51385233  0.35550156    -0.25700
C129        C  0.39438738  0.54964620  0.36013402     0.36300
C130        C  0.38570161  0.56743834  0.39054003    -0.19700
C131        C  0.40935541  0.54700228  0.41539573    -0.25000
C132        C  0.44042843  0.51173967  0.41055297     0.27700
H133        H  0.43119317  0.50068607  0.33223470     0.13500
N134        N  0.37149501  0.56772387  0.33375530    -0.82200
H135        H  0.40275137  0.55602295  0.43934829     0.18300
N136        N  0.46431675  0.49343536  0.43647003    -0.80800
H137        H  0.35354301  0.54190710  0.32351500     0.33900
H138        H  0.39581590  0.57870514  0.31757585     0.38400
H139        H  0.48227721  0.51928008  0.44667285     0.33900
H140        H  0.44057320  0.48196424  0.45288782     0.30600
H141        H  0.40418372  0.40765830  0.39131128     0.33900
H142        H  0.42995437  0.37539711  0.41784243     0.30600
H143        H  0.57664659  0.43299577  0.31232474     0.38500
H144        H  0.60478682  0.46290280  0.33858940     0.34000
C145        C  0.63554586  0.36756776  0.37068761    -0.19800
C146        C  0.65649776  0.40800991  0.37992862     0.36400
C147        C  0.69981341  0.41875933  0.36859161    -0.25800
C148        C  0.72418710  0.39001561  0.34849532     0.02900
C149        C  0.70534605  0.34869405  0.34044618     0.27700
C150        C  0.66196877  0.33769987  0.35187026    -0.24900
N151        N  0.63388788  0.43865776  0.40089524    -0.82300
H152        H  0.71460664  0.45006695  0.37562150     0.13500
C153        C  0.76905070  0.40414515  0.33578222     0.02800
N154        N  0.73034621  0.31792662  0.32063830    -0.80900
H155        H  0.64987315  0.30478613  0.34644878     0.18300
C156        C  0.80770668  0.37728219  0.34059689    -0.25700
C157        C  0.85047882  0.38978110  0.32868044     0.36300
C158        C  0.85465294  0.43022034  0.31162317    -0.19700
C159        C  0.81587742  0.45697182  0.30695589    -0.25000
C160        C  0.77326210  0.44437483  0.31871699     0.27700
H161        H  0.80446076  0.34644566  0.35377903     0.13500
N162        N  0.88906716  0.36068369  0.33284632    -0.82200
H163        H  0.81874531  0.48785951  0.29378935     0.18300
N164        N  0.73402704  0.47196567  0.31296284    -0.80800
H165        H  0.87946222  0.33091146  0.34385905     0.33900
H166        H  0.91066890  0.37662100  0.34808556     0.38400
H167        H  0.74284542  0.50050176  0.30017453     0.33900
H168        H  0.71247174  0.45356103  0.29906890     0.30600
H169        H  0.71208157  0.28870653  0.31715054     0.33900
H170        H  0.73432398  0.33313334  0.29881959     0.30600
H171        H  0.65375729  0.44188863  0.42058222     0.38500
H172        H  0.63180700  0.47009366  0.39018688     0.34000
C173        C  0.57067103  0.30896271  0.37086126    -0.19800
C174        C  0.56423371  0.30336619  0.33833174     0.36400
C175        C  0.54970740  0.26235675  0.32649762    -0.25800
C176        C  0.53952496  0.22642796  0.34621737     0.02900
C177        C  0.54192351  0.23222867  0.37860647     0.27700
C178        C  0.55675545  0.27326998  0.39057364    -0.24900
N179        N  0.57299882  0.33919562  0.31694691    -0.82300
H180        H  0.54668709  0.25845080  0.30154157     0.13500
C181        C  0.52616833  0.18307217  0.33243333     0.02800
N182        N  0.52859942  0.19655419  0.39924063    -0.80900
H183        H  0.55624161  0.27708868  0.41555364     0.18300
C184        C  0.55461097  0.14530410  0.33548951    -0.25700
C185        C  0.54466533  0.10445858  0.32093394     0.36300
C186        C  0.50505367  0.10125486  0.30332350    -0.19700
C187        C  0.47650300  0.13908610  0.30052561    -0.25000
C188        C  0.48649034  0.17982726  0.31507418     0.27700
H189        H  0.58530472  0.14813304  0.34860786     0.13500
N190        N  0.57528629  0.06676251  0.32322409    -0.82200
H191        H  0.44596763  0.13671779  0.28718539     0.18300
N192        N  0.45649759  0.21795535  0.31240609    -0.80800
H193        H  0.60263943  0.07464472  0.33711004     0.33900
H194        H  0.58862523  0.06035785  0.30090325     0.38400
H195        H  0.42883035  0.21012303  0.29879498     0.33900
H196        H  0.44360776  0.22531122  0.33469844     0.30600
H197        H  0.53235235  0.20594153  0.42248402     0.33900
H198        H  0.49412533  0.19132714  0.39624701     0.30600
H199        H  0.54319404  0.34642121  0.30516396     0.38500
H200        H  0.59731162  0.32815994  0.30055740     0.34000
C201        C  0.12765189  0.07211819  0.14310593    -0.19800
C202        C  0.16800881  0.09447383  0.13387746     0.36400
C203        C  0.20946553  0.08261907  0.14701918    -0.25800
C204        C  0.21237977  0.04925490  0.16978491     0.02900
C205        C  0.17287643  0.02740149  0.17987223     0.27700
C206        C  0.13117304  0.03939592  0.16691522    -0.24900
N207        N  0.16734046  0.12910846  0.11074700    -0.82300
H208        H  0.23966356  0.10012794  0.13959908     0.13500
C209        C  0.25676337  0.03873529  0.18378008     0.02800
N210        N  0.17526394  0.99319076  0.20345738    -0.80900
H211        H  0.10137360  0.02362136  0.17644947     0.18300
C212        C  0.26176657  0.04474572  0.21584997    -0.25700
C213        C  0.30286874  0.03477128  0.23029172     0.36300
C214        C  0.33974479  0.01725548  0.21227474    -0.19700
C215        C  0.33493954  0.01253664  0.17992358    -0.25000
C216        C  0.29391213  0.02325099  0.16549031     0.27700
H217        H  0.23343499  0.05779965  0.22963785     0.13500
N218        N  0.30709788  0.04268382  0.26311166    -0.82200
H219        H  0.36308682  0.99983277  0.16582959     0.18300
N220        N  0.28963046  0.01798178  0.13241714    -0.80800
H221        H  0.27643886  0.05418493  0.27293826     0.33900
H222        H  0.33002811  0.06866799  0.26565972     0.38400
H223        H  0.32013139  0.00661602  0.12229094     0.33900
H224        H  0.26593736  0.99301127  0.12875448     0.30600
H225        H  0.14320659  0.98050735  0.20854679     0.33900
H226        H  0.19469770  0.96656733  0.19431125     0.30600
H227        H  0.17987045  0.15829344  0.12060430     0.38500
H228        H  0.18914691  0.11952527  0.09238433     0.34000
C229        C  0.07301600  0.13385642  0.14477691    -0.19800
C230        C  0.06374960  0.13787658  0.17737399     0.36400
C231        C  0.05600262  0.18014492  0.19101009    -0.25800
C232        C  0.05717920  0.21959171  0.17326105     0.02900
C233        C  0.06932135  0.21662755  0.14141750     0.27700
C234        C  0.07851449  0.17440052  0.12794752    -0.24900
N235        N  0.06098413  0.09893333  0.19683436    -0.82300
H236        H  0.04834522  0.18203800  0.21576908     0.13500
C237        C  0.04474284  0.26347343  0.18819460     0.02800
N238        N  0.07176956  0.25652825  0.12264010    -0.80900
H239        H  0.09055018  0.17399485  0.10408767     0.18300
C240        C  0.07391330  0.30009389  0.18534943    -0.25700
C241        C  0.06234679  0.34213300  0.19834711     0.36300
C242        C  0.02110964  0.34786488  0.21516432    -0.19700
C243        C  0.99237078  0.31095754  0.21838341    -0.25000
C244        C  0.00341510  0.26917814  0.20490003     0.27700
H245        H  0.10602280  0.29605108  0.17299808     0.13500
N246        N  0.09290827  0.37858903  0.19462602    -0.82200
H247        H  0.96065845  0.31475352  0.23124149     0.18300
N248        N  0.97243901  0.23266123  0.20778492    -0.80800
H249        H  0.12385192  0.36890073  0.20405915     0.33900
H250        H  0.09813443  0.38409925  0.17077539     0.38400
H251        H  0.94377909  0.24219278  0.22097380     0.33900
H252        H  0.96134048  0.22514133  0.18547735     0.30600
H253        H  0.08146095  0.24875931  0.09970253     0.33900
H254        H  0.03919318  0.27048223  0.12175698     0.30600
H255        H  0.08484369  0.10177828  0.21429872     0.38500
H256        H  0.02890976  0.09854257  0.20751229     0.34000
C257        C  0.87539647  0.88377260  0.13497410    -0.19800
C258        C  0.86758393  0.92704426  0.12171452     0.36400
C259        C  0.89770099  0.96192249  0.12701326    -0.25800
C260        C  0.93475687  0.95562003  0.14628201     0.02900
C261        C  0.93777100  0.91598370  0.16397165     0.27700
C262        C  0.90783792  0.88086734  0.15864256    -0.24900
N263        N  0.83130966  0.93482012  0.10075831    -0.82300
H264        H  0.89372624  0.99307854  0.11426175     0.13500
C265        C  0.97195601  0.98864305  0.14503018     0.02800
N266        N  0.97152663  0.91113302  0.18719292    -0.80900
H267        H  0.91120496  0.85108984  0.17279991     0.18300
C268        C  0.96256439  0.03446152  0.14902154    -0.25700
C269        C  0.99610780  0.06687632  0.14405782     0.36300
C270        C  0.04174517  0.05341175  0.13691191    -0.19700
C271        C  0.04957812  0.00710531  0.13162401    -0.25000
C272        C  0.01573322  0.97520949  0.13544250     0.27700
H273        H  0.92830496  0.04542071  0.15475325     0.13500
N274        N  0.98235860  0.11310840  0.14450225    -0.82200
H275        H  0.08259474  0.99496423  0.12440445     0.18300
N276        N  0.02556459  0.92924330  0.12793203    -0.80800
H277        H  0.96748212  0.12015285  0.16628830     0.33900
H278        H  0.95773012  0.11797575  0.12767859     0.38400
H279        H  0.03655658  0.92768790  0.10465134     0.33900
H280        H  0.05215465  0.91819799  0.14179101     0.30600
H281        H  0.95508410  0.90546172  0.20859738     0.33900
H282        H  0.99119307  0.88264558  0.18183633     0.30600
H283        H  0.84479440  0.94556722  0.07935807     0.38500
H284        H  0.81087602  0.96074337  0.10983717     0.34000
C285        C  0.79783182  0.85622300  0.13502323    -0.19800
C286        C  0.76067985  0.86571900  0.11507610     0.36400
C287        C  0.71848784  0.87921479  0.12789779    -0.25800
C288        C  0.71213102  0.88592040  0.15990192     0.02900
C289        C  0.74873812  0.87909981  0.17974564     0.27700
C290        C  0.79050035  0.86423899  0.16728948    -0.24900
N291        N  0.76522606  0.86482603  0.08184873    -0.82300
H292        H  0.69050812  0.88543350  0.11250677     0.13500
C293        C  0.66711182  0.90026766  0.17262906     0.02800
N294        N  0.74350448  0.88792196  0.21255098    -0.80900
H295        H  0.81818381  0.85900443  0.18305241     0.18300
C296        C  0.64538709  0.87283531  0.19461856    -0.25700
C297        C  0.60443594  0.88623070  0.20911960     0.36300
C298        C  0.58478999  0.92834574  0.20162889    -0.19700
C299        C  0.60549875  0.95492062  0.17851340    -0.25000
C300        C  0.64669139  0.94143652  0.16407386     0.27700
H301        H  0.66081330  0.84089285  0.20069409     0.13500
N302        N  0.58282543  0.85715545  0.23145011    -0.82200
H303        H  0.59045887  0.98708128  0.17257462     0.18300
N304        N  0.66850264  0.96988289  0.14146236    -0.80800
H305        H  0.60199936  0.82782250  0.23459016     0.33900
H306        H  0.55214733  0.84738408  0.22213731     0.38400
H307        H  0.64908551  0.99894889  0.13775981     0.33900
H308        H  0.69895733  0.98018317  0.15077844     0.30600
H309        H  0.77364902  0.88116650  0.22403580     0.33900
H310        H  0.73676879  0.92224291  0.21520498     0.30600
H311        H  0.74175333  0.84232059  0.07332792     0.38500
H312        H  0.75702087  0.89666577  0.07322058     0.34000
C313        C  0.86262744  0.79743583  0.14102325    -0.19800
C314        C  0.90761374  0.78018318  0.13746697     0.36400
C315        C  0.92066922  0.73994139  0.15199534    -0.25800
C316        C  0.88985151  0.71451896  0.16931177     0.02900
C317        C  0.84427679  0.72921793  0.17147519     0.27700
C318        C  0.83130570  0.76975606  0.15721121    -0.24900
N319        N  0.94061256  0.80340886  0.11904350    -0.82300
H320        H  0.95544353  0.72828634  0.14957162     0.13500
C321        C  0.90665801  0.67300206  0.18477479     0.02800
N322        N  0.81014522  0.70417350  0.18795447    -0.80900
H323        H  0.79576628  0.77846430  0.15848191     0.18300
C324        C  0.92639074  0.67626388  0.21399696    -0.25700
C325        C  0.94448104  0.63822374  0.22905906     0.36300
C326        C  0.94227129  0.59551611  0.21468432    -0.19700
C327        C  0.92288331  0.59266089  0.18508848    -0.25000
C328        C  0.90503167  0.63092592  0.17005557     0.27700
H329        H  0.92803792  0.70886685  0.22496835     0.13500
N330        N  0.96515341  0.64309200  0.25883022    -0.82200
H331        H  0.92099896  0.56034079  0.17378524     0.18300
N332        N  0.88562004  0.62737580  0.13978349    -0.80800
H333        H  0.96267375  0.67630650  0.26648167     0.33900
H334        H  0.99965260  0.63588493  0.25575054     0.38400
H335        H  0.88758869  0.59425268  0.13188857     0.33900
H336        H  0.85124937  0.63559029  0.14207630     0.30600
H337        H  0.78658023  0.69404692  0.17170114     0.33900
H338        H  0.82339143  0.67498756  0.19788938     0.30600
H339        H  0.95207722  0.78197060  0.10123041     0.38500
H340        H  0.96803995  0.81046519  0.13307622     0.34000
C341        C  0.62257357  0.34859511  0.58574989    -0.19800
C342        C  0.66190953  0.34716578  0.56585735     0.36400
C343        C  0.65717543  0.34589623  0.53332651    -0.25800
C344        C  0.61455324  0.34291100  0.52005191     0.02900
C345        C  0.57668581  0.33603441  0.53961128     0.27700
C346        C  0.58111207  0.33776496  0.57196469    -0.24900
N347        N  0.70659953  0.34458751  0.57794720    -0.82300
H348        H  0.68702473  0.34787611  0.51834986     0.13500
C349        C  0.60957462  0.34758440  0.48584562     0.02800
N350        N  0.53332948  0.32827350  0.52662952    -0.80900
H351        H  0.55082495  0.33476128  0.58638888     0.18300
C352        C  0.63284065  0.31829046  0.46556081    -0.25700
C353        C  0.62662148  0.32038140  0.43323166     0.36300
C354        C  0.59541796  0.35184247  0.42033409    -0.19700
C355        C  0.57500289  0.38334142  0.44124296    -0.25000
C356        C  0.58173426  0.38153165  0.47345290     0.27700
H357        H  0.65554497  0.29304437  0.47491553     0.13500
N358        N  0.65183332  0.28988957  0.41358355    -0.82200
H359        H  0.55519117  0.41128198  0.43280450     0.18300
N360        N  0.56091433  0.41464312  0.49369020    -0.80800
H361        H  0.64479201  0.25719004  0.42079828     0.33900
H362        H  0.68622897  0.29532337  0.41681466     0.38400
H363        H  0.58671608  0.43317685  0.50345955     0.33900
H364        H  0.54104108  0.43726141  0.48108454     0.30600
H365        H  0.52184474  0.29745434  0.53498122     0.33900
H366        H  0.51095310  0.35328502  0.53479303     0.30600
H367        H  0.72163029  0.31446400  0.57039384     0.38500
H368        H  0.72548390  0.37066934  0.56826432     0.34000
C369        C  0.66782167  0.37519010  0.63370754    -0.19800
C370        C  0.68980662  0.41437045  0.62223224     0.36400
C371        C  0.73171163  0.42692544  0.63386935    -0.25800
C372        C  0.75253180  0.40201971  0.65723616     0.02900
C373        C  0.73107747  0.36407590  0.66957277     0.27700
C374        C  0.68877272  0.35181357  0.65842051    -0.24900
N375        N  0.66975147  0.44169649  0.59860878    -0.82300
H376        H  0.74777058  0.45685534  0.62491597     0.13500
C377        C  0.79482710  0.41820028  0.67076230     0.02800
N378        N  0.75219886  0.33848960  0.69384136    -0.80900
H379        H  0.67224237  0.32436425  0.67004224     0.18300
C380        C  0.79270378  0.43705552  0.70054736    -0.25700
C381        C  0.83181563  0.45161109  0.71508375     0.36300
C382        C  0.87429141  0.44668800  0.69952731    -0.19700
C383        C  0.87613907  0.42891694  0.66920890    -0.25000
C384        C  0.83673749  0.41422360  0.65475967     0.27700
H385        H  0.76020179  0.44031603  0.71251747     0.13500
N386        N  0.82838820  0.47145335  0.74555572    -0.82200
H387        H  0.90851677  0.42511676  0.65717703     0.18300
N388        N  0.83914523  0.39447372  0.62426086    -0.80800
H389        H  0.79491785  0.47169578  0.75387774     0.33900
H390        H  0.83771507  0.50499179  0.74335923     0.38400
H391        H  0.87245757  0.39395329  0.61567330     0.33900
H392        H  0.82948698  0.36101499  0.62649313     0.30600
H393        H  0.73207112  0.31155306  0.70064182     0.33900
H394        H  0.78220850  0.32462786  0.68451462     0.30600
H395        H  0.69250341  0.44391347  0.57973558     0.38500
H396        H  0.66473578  0.47395960  0.60763845     0.34000
C397        C  0.60142645  0.31837815  0.63793400    -0.19800
C398        C  0.62427205  0.27609418  0.63560945     0.36400
C399        C  0.60713872  0.23822915  0.65107454    -0.25800
C400        C  0.56633495  0.24015542  0.66820282     0.02900
C401        C  0.54168898  0.28091219  0.66923606     0.27700
C402        C  0.55881065  0.31890490  0.65374895    -0.24900
N403        N  0.66539064  0.27135667  0.61765460    -0.82300
H404        H  0.62616936  0.20693241  0.64974458     0.13500
C405        C  0.54953846  0.19900797  0.68437641     0.02800
N406        N  0.49880842  0.28344015  0.68559502    -0.80900
H407        H  0.53743864  0.34847355  0.65370057     0.18300
C408        C  0.53908714  0.20031916  0.71643226    -0.25700
C409        C  0.52426014  0.16189914  0.73260942     0.36300
C410        C  0.52103220  0.12066620  0.71655205    -0.19700
C411        C  0.53055444  0.11976228  0.68433968    -0.25000
C412        C  0.54438159  0.15839707  0.66809870     0.27700
H413        H  0.54281468  0.23148894  0.72895697     0.13500
N414        N  0.51244032  0.16482957  0.76519985    -0.82200
H415        H  0.52767939  0.08857451  0.67171572     0.18300
N416        N  0.55313580  0.15657082  0.63506239    -0.80800
H417        H  0.51746974  0.19723982  0.77351270     0.33900
H418        H  0.47776347  0.15902641  0.76751845     0.38400
H419        H  0.54801617  0.12424373  0.62658529     0.33900
H420        H  0.52942193  0.17753752  0.62439401     0.30600
H421        H  0.48502960  0.31588631  0.68456953     0.33900
H422        H  0.47656878  0.26254894  0.67411398     0.30600
H423        H  0.66041271  0.24744735  0.60034476     0.38500
H424        H  0.69062809  0.25913392  0.63223093     0.34000
C425        C  0.37721609  0.61709635  0.59503638    -0.19800
C426        C  0.39842945  0.58940337  0.57155535     0.36400
C427        C  0.39044613  0.59748095  0.54006923    -0.25800
C428        C  0.35944001  0.63002422  0.53048092     0.02900
C429        C  0.33398305  0.65401387  0.55305337     0.27700
C430        C  0.34284506  0.64714451  0.58484817    -0.24900
N431        N  0.42547316  0.55074521  0.57872218    -0.82300
H432        H  0.40780479  0.57675812  0.52271283     0.13500
C433        C  0.35298619  0.63544180  0.49648954     0.02800
N434        N  0.29944459  0.68529332  0.54366135    -0.80900
H435        H  0.32350170  0.66639965  0.60199192     0.18300
C436        C  0.31153628  0.62406537  0.48385003    -0.25700
C437        C  0.30705754  0.61752918  0.45164720     0.36300
C438        C  0.34598073  0.61926293  0.43146460    -0.19700
C439        C  0.38552961  0.63731549  0.44422726    -0.25000
C440        C  0.38964802  0.64510588  0.47611045     0.27700
H441        H  0.28263521  0.61850472  0.49921878     0.13500
N442        N  0.26277960  0.61001329  0.44018834    -0.82200
H443        H  0.41504643  0.64254858  0.42938620     0.18300
N444        N  0.43213155  0.66112321  0.48698632    -0.80800
H445        H  0.24950500  0.58199211  0.45160872     0.33900
H446        H  0.24229230  0.63768744  0.44613933     0.38400
H447        H  0.43815005  0.69185532  0.47604180     0.33900
H448        H  0.43056720  0.66811487  0.51079318     0.30600
H449        H  0.28340960  0.69990328  0.56314120     0.33900
H450        H  0.31525366  0.71116755  0.53135903     0.30600
H451        H  0.41019412  0.52251753  0.56943808     0.38500
H452        H  0.45693765  0.55420326  0.56750706     0.34000
C453        C  0.42520217  0.58042748  0.63849855    -0.19800
C454        C  0.47015963  0.58985720  0.62805916     0.36400
C455        C  0.50449023  0.55713575  0.63040756    -0.25800
C456        C  0.49557534  0.51481942  0.64297913     0.02900
C457        C  0.45277955  0.50703477  0.65680399     0.27700
C458        C  0.41889884  0.54029014  0.65558134    -0.24900
N459        N  0.48037261  0.63125673  0.61267528    -0.82300
H460        H  0.53762576  0.56378011  0.62035184     0.13500
C461        C  0.52900987  0.47784594  0.63756447     0.02800
N462        N  0.44193672  0.46476934  0.67074371    -0.80900
H463        H  0.38709175  0.53326427  0.66717526     0.18300
C464        C  0.55120046  0.45748512  0.66246309    -0.25700
C465        C  0.58119376  0.42095312  0.65758174     0.36300
C466        C  0.58935881  0.40355258  0.62704029    -0.19700
C467        C  0.56998115  0.42788483  0.60211139    -0.25000
C468        C  0.53897313  0.46317928  0.60706873     0.27700
H469        H  0.54498426  0.46977089  0.68591065     0.13500
N470        N  0.60272051  0.40106878  0.68390132    -0.82200
H471        H  0.57903305  0.42052270  0.57822421     0.18300
N472        N  0.51697465  0.48391727  0.58107535    -0.80800
H473        H  0.62161461  0.42573554  0.69465942     0.33900
H474        H  0.57761977  0.39075528  0.69972887     0.38400
H475        H  0.52875293  0.47010775  0.56000462     0.33900
H476        H  0.48273020  0.47609502  0.58297535     0.30600
H477        H  0.46368517  0.45888480  0.68919803     0.33900
H478        H  0.44724308  0.43958810  0.65410559     0.30600
H479        H  0.50576309  0.64693342  0.62500528     0.38500
H480        H  0.49305796  0.62410792  0.59029595     0.34000
C481        C  0.39969202  0.65908146  0.64583975    -0.19800
C482        C  0.40937144  0.66162782  0.67815982     0.36400
C483        C  0.42228513  0.70222031  0.69149228    -0.25800
C484        C  0.42483358  0.74167470  0.67387827     0.02900
C485        C  0.41634512  0.73979797  0.64173618     0.27700
C486        C  0.40562199  0.69864046  0.62798293    -0.24900
N487        N  0.40546285  0.62294993  0.69782057    -0.82300
H488        H  0.42987839  0.70293978  0.71605894     0.13500
C489        C  0.43630330  0.78465395  0.68940310     0.02800
N490        N  0.41813263  0.77990742  0.62312566    -0.80900
H491        H  0.40260008  0.69828664  0.60304973     0.18300
C492        C  0.47171589  0.81067475  0.67724508    -0.25700
C493        C  0.48291761  0.85186120  0.69079922     0.36300
C494        C  0.45817732  0.86748203  0.71726010    -0.19700
C495        C  0.42355923  0.84081323  0.72988435    -0.25000
C496        C  0.41214704  0.79986110  0.71617725     0.27700
H497        H  0.49105633  0.79852356  0.65719929     0.13500
N498        N  0.51973214  0.87737090  0.67800929    -0.82200
H499        H  0.40462507  0.85236507  0.75027611     0.18300
N500        N  0.37566427  0.77399719  0.72911303    -0.80800
H501        H  0.53373275  0.86161944  0.65824937     0.33900
H502        H  0.54511808  0.87763063  0.69457265     0.38400
H503        H  0.36163514  0.78960072  0.74891782     0.33900
H504        H  0.35021617  0.77319134  0.71261696     0.30600
H505        H  0.41113237  0.77299322  0.59988630     0.33900
H506        H  0.39240637  0.80158400  0.63125671     0.30600
H507        H  0.38213342  0.63037906  0.71577426     0.38500
H508        H  0.43686599  0.61664962  0.70777798     0.34000
C509        C  0.33831616  0.59841101  0.64499082    -0.19800
C510        C  0.31795364  0.55780004  0.63546083     0.36400
C511        C  0.27513052  0.54584121  0.64711428    -0.25800
C512        C  0.25042560  0.57387146  0.66746475     0.02900
C513        C  0.26853287  0.61533360  0.67583010     0.27700
C514        C  0.31158475  0.62725572  0.66445655    -0.24900
N515        N  0.34047615  0.52834137  0.61369416    -0.82300
H516        H  0.26118391  0.51403889  0.64030315     0.13500
C517        C  0.20629750  0.55878012  0.68064393     0.02800
N518        N  0.24269657  0.64562071  0.69552272    -0.80900
H519        H  0.32291110  0.66026584  0.67036934     0.18300
C520        C  0.20074991  0.55565191  0.71304142    -0.25700
C521        C  0.16049627  0.53997899  0.72679426     0.36300
C522        C  0.12442229  0.52731824  0.70762403    -0.19700
C523        C  0.13007983  0.53064974  0.67507900    -0.25000
C524        C  0.17051366  0.54643053  0.66141667     0.27700
H525        H  0.22851495  0.56466568  0.72771555     0.13500
N526        N  0.15660394  0.53655213  0.76014688    -0.82200
H527        H  0.10271544  0.52128132  0.66018308     0.18300
N528        N  0.17525796  0.55036604  0.62813944    -0.80800
H529        H  0.18526677  0.54919761  0.77067540     0.33900
H530        H  0.15576232  0.50245191  0.76576532     0.38400
H531        H  0.14596168  0.53981787  0.61731564     0.33900
H532        H  0.17869478  0.58437949  0.62283192     0.30600
H533        H  0.26078521  0.67471079  0.69982895     0.33900
H534        H  0.21394775  0.65555269  0.68340484     0.30600
H535        H  0.34380154  0.49672198  0.62402828     0.38500
H536        H  0.31996203  0.52513538  0.59432720     0.34000
C537        C  0.09179735  0.09949752  0.92410982    -0.19800
C538        C  0.04987036  0.10286508  0.94102182     0.36400
C539        C  0.04831548  0.09889854  0.97359582    -0.25800
C540        C  0.08771231  0.09461419  0.99100300     0.02900
C541        C  0.12972937  0.09193741  0.97468830     0.27700
C542        C  0.13100157  0.09218726  0.94188265    -0.24900
N543        N  0.00826689  0.11014491  0.92518004    -0.82300
H544        H  0.01553087  0.09902083  0.98525892     0.13500
C545        C  0.08433510  0.09154724  0.02598563     0.02800
N546        N  0.17129154  0.08899284  0.99139924    -0.80900
H547        H  0.16333530  0.08586999  0.93069344     0.18300
C548        C  0.11101249  0.05992378  0.04171653    -0.25700
C549        C  0.11172713  0.05783648  0.07437480     0.36300
C550        C  0.08318707  0.08694109  0.09278922    -0.19700
C551        C  0.05124448  0.11309177  0.07644500    -0.25000
C552        C  0.05397189  0.11864286  0.04388285     0.27700
H553        H  0.13192563  0.03627698  0.02856391     0.13500
N554        N  0.14101652  0.02504195  0.08817023    -0.82200
H555        H  0.02566499  0.13199635  0.08935792     0.18300
N556        N  0.02679921  0.15267795  0.02921518    -0.80800
H557        H  0.13249866  0.99343964  0.07980869     0.33900
H558        H  0.17416376  0.03141064  0.08070846     0.38400
H559        H  0.00651441  0.16976372  0.04566464     0.33900
H560        H  0.04877244  0.17628529  0.01952269     0.30600
H561        H  0.19917393  0.08687078  0.97608248     0.33900
H562        H  0.17444253  0.11882500  0.00384421     0.30600
H563        H  0.99272575  0.13930303  0.93399072     0.38500
H564        H  0.98704930  0.08329628  0.93031701     0.34000
C565        C  0.02715997  0.35134647  0.79426196    -0.19800
C566        C  0.06804305  0.32773843  0.78816687     0.36400
C567        C  0.07632917  0.28647843  0.80287717    -0.25800
C568        C  0.04426770  0.26776364  0.82339636     0.02900
C569        C  0.00292146  0.29084359  0.82918091     0.27700
C570        C  0.99503854  0.33269633  0.81487258    -0.24900
N571        N  0.10189099  0.34612911  0.76774752    -0.82300
H572        H  0.10838601  0.26927590  0.79862028     0.13500
C573        C  0.05533561  0.22497571  0.83961150     0.02800
N574        N  0.96904921  0.27147575  0.84933821    -0.80900
H575        H  0.96335045  0.35043924  0.81938207     0.18300
C576        C  0.05663889  0.22439785  0.87213201    -0.25700
C577        C  0.06947583  0.18569114  0.88863571     0.36300
C578        C  0.07867854  0.14464275  0.87239376    -0.19700
C579        C  0.07876227  0.14660076  0.83938422    -0.25000
C580        C  0.06735065  0.18585099  0.82300661     0.27700
H581        H  0.04953733  0.25510544  0.88490816     0.13500
N582        N  0.07600121  0.19013498  0.92140110    -0.82200
H583        H  0.08745779  0.11667113  0.82618447     0.18300
N584        N  0.06799756  0.18610190  0.78951907    -0.80800
H585        H  0.04580466  0.20200953  0.93169498     0.33900
H586        H  0.10063218  0.21427502  0.92482173     0.38400
H587        H  0.07826834  0.15480563  0.78077266     0.33900
H588        H  0.03483936  0.19164348  0.78233642     0.30600
H589        H  0.94060252  0.29262414  0.85114618     0.33900
H590        H  0.95848647  0.24191688  0.83888155     0.30600
H591        H  0.10846704  0.32313696  0.74981438     0.38500
H592        H  0.13150817  0.34960664  0.78030581     0.34000
C593        C  0.36095005  0.03456252  0.80995282    -0.19800
C594        C  0.34294065  0.01171709  0.83614811     0.36400
C595        C  0.30058472  0.02516677  0.84870367    -0.25800
C596        C  0.27597799  0.06076097  0.83557598     0.02900
C597        C  0.29409143  0.08395777  0.80972228     0.27700
C598        C  0.33637936  0.07054386  0.79711164    -0.24900
N599        N  0.36690680  0.97413241  0.84926610    -0.82300
H600        H  0.28612377  0.00723149  0.86840069     0.13500
C601        C  0.22975564  0.07098900  0.84769902     0.02800
N602        N  0.26914392  0.12055110  0.79615009    -0.80900
H603        H  0.35018561  0.08815515  0.77705776     0.18300
C604        C  0.22109037  0.10999658  0.86491221    -0.25700
C605        C  0.17776830  0.11947138  0.87751206     0.36300
C606        C  0.14171609  0.08898505  0.87341500    -0.19700
C607        C  0.15071115  0.05180690  0.85354549    -0.25000
C608        C  0.19418450  0.04202156  0.84150029     0.27700
H609        H  0.24828137  0.13307483  0.86889090     0.13500
N610        N  0.17069092  0.16013108  0.89473426    -0.82200
H611        H  0.12405089  0.03002599  0.84658745     0.18300
N612        N  0.20240748  0.00273768  0.82271852    -0.80800
H613        H  0.19336246  0.16040467  0.91307095     0.33900
H614        H  0.17829462  0.18704059  0.87999291     0.38400
H615        H  0.17289725  0.98426561  0.82064226     0.33900
H616        H  0.21152440  0.01344864  0.80028787     0.30600
H617        H  0.28734383  0.13428972  0.77739374     0.33900
H618        H  0.23962141  0.10756649  0.78703664     0.30600
H619        H  0.36814913  0.94868527  0.83253995     0.38500
H620        H  0.34912582  0.96136085  0.86853490     0.34000
C621        C  0.85792366  0.83049060  0.92483588    -0.19800
C622        C  0.89673648  0.81453651  0.94085525     0.36400
C623        C  0.89385844  0.80462105  0.97270139    -0.25800
C624        C  0.85313838  0.80984108  0.98949233     0.02900
C625        C  0.81341552  0.81937714  0.97319741     0.27700
C626        C  0.81585271  0.82789647  0.94099889    -0.24900
N627        N  0.94010048  0.81167964  0.92554932    -0.82300
H628        H  0.92450717  0.79598850  0.98489098     0.13500
C629        C  0.85466481  0.81372034  0.02393474     0.02800
N630        N  0.77080868  0.82298126  0.98949276    -0.80900
H631        H  0.78446903  0.83427641  0.92930628     0.18300
C632        C  0.88361621  0.84528751  0.03628369    -0.25700
C633        C  0.88534208  0.85313501  0.06830696     0.36300
C634        C  0.85356966  0.83215584  0.08909073    -0.19700
C635        C  0.82857683  0.79645441  0.07657817    -0.25000
C636        C  0.82877591  0.78731228  0.04443095     0.27700
H637        H  0.90593832  0.86388813  0.02082200     0.13500
N638        N  0.92171907  0.87986795  0.07894069    -0.82200
H639        H  0.80692371  0.77681556  0.09179870     0.18300
N640        N  0.80303518  0.75099750  0.03279259    -0.80800
H641        H  0.92006960  0.91104894  0.06778739     0.33900
H642        H  0.95221967  0.86445825  0.07193168     0.38400
H643        H  0.81433077  0.72151778  0.04352635     0.33900
H644        H  0.76922910  0.75636639  0.03952310     0.30600
H645        H  0.75757811  0.85522178  0.98584054     0.33900
H646        H  0.74888618  0.80005058  0.97968626     0.30600
H647        H  0.95199661  0.77859248  0.92727332     0.38500
H648        H  0.96243037  0.83219511  0.93726164     0.34000
C649        C  0.05971715  0.06033926  0.87918338    -0.19800
C650        C  0.06665600  0.01626054  0.89125446     0.36400
C651        C  0.03381790  0.98349168  0.88787282    -0.25800
C652        C  0.99292816  0.99303325  0.87334452     0.02900
C653        C  0.98592055  0.03562761  0.86023559     0.27700
C654        C  0.01902464  0.06856005  0.86298949    -0.24900
N655        N  0.10661962  0.00489467  0.90801858    -0.82300
H656        H  0.03940400  0.95069735  0.89816314     0.13500
C657        C  0.95594332  0.96027374  0.87693809     0.02800
N658        N  0.94393848  0.04663892  0.84588059    -0.80900
H659        H  0.01020664  0.10147379  0.85442894     0.18300
C660        C  0.94264793  0.94821891  0.90713867    -0.25700
C661        C  0.91116928  0.91456245  0.91286465     0.36300
C662        C  0.89361437  0.88966181  0.88746404    -0.19700
C663        C  0.90278849  0.90663387  0.85711683    -0.25000
C664        C  0.93466737  0.94042899  0.85164576     0.27700
H665        H  0.95681008  0.96553233  0.92676463     0.13500
N666        N  0.89589388  0.90855040  0.94446178    -0.82200
H667        H  0.88766207  0.89097537  0.83721248     0.18300
N668        N  0.94674367  0.95292415  0.82039510    -0.80800
H669        H  0.88190578  0.93892030  0.95247304     0.33900
H670        H  0.92397479  0.90130147  0.95806291     0.38400
H671        H  0.95873553  0.92424994  0.80873619     0.33900
H672        H  0.91741438  0.96404861  0.80942561     0.30600
H673        H  0.92907750  0.07374311  0.85786685     0.33900
H674        H  0.95102670  0.05696323  0.82303221     0.30600
H675        H  0.09685634  0.99460803  0.93042947     0.38500
H676        H  0.12273181  0.97772800  0.89685925     0.34000
C677        C  0.95190628  0.60096131  0.79837757    -0.19800
C678        C  0.96639472  0.61198779  0.82854072     0.36400
C679        C  0.95085975  0.65185685  0.84276798    -0.25800
C680        C  0.92068375  0.68074392  0.82762338     0.02900
C681        C  0.90580068  0.66979021  0.79780956     0.27700
C682        C  0.92149740  0.63020334  0.78340164    -0.24900
N683        N  0.99710710  0.58318159  0.84477513    -0.82300
H684        H  0.96242985  0.66034912  0.86576278     0.13500
C685        C  0.90602322  0.72302154  0.84290101     0.02800
N686        N  0.87501830  0.69907292  0.78202669    -0.80900
H687        H  0.90971182  0.62241341  0.76035079     0.18300
C688        C  0.93543993  0.75909003  0.84273775    -0.25700
C689        C  0.92390498  0.79963580  0.85769958     0.36300
C690        C  0.88020314  0.80548988  0.87233160    -0.19700
C691        C  0.85185984  0.76751965  0.87306650    -0.25000
C692        C  0.86406996  0.72710330  0.85858944     0.27700
H693        H  0.96848793  0.75529388  0.83157680     0.13500
N694        N  0.95845516  0.83249482  0.85953777    -0.82200
H695        H  0.81929283  0.76952670  0.88504631     0.18300
N696        N  0.83354044  0.69037808  0.86067886    -0.80800
H697        H  0.96857427  0.84108036  0.83684355     0.33900
H698        H  0.98639723  0.81801611  0.87042360     0.38400
H699        H  0.82505958  0.68095810  0.83814214     0.33900
H700        H  0.85021283  0.66335426  0.87118397     0.30600
H701        H  0.89027589  0.70874353  0.76093577     0.33900
H702        H  0.84618203  0.68088530  0.77695665     0.30600
H703        H  0.02577591  0.60158897  0.84991486     0.38500
H704        H  0.98157078  0.57372948  0.86582304     0.34000
C705        C  0.81594282  0.86543098  0.87727261    -0.19800
C706        C  0.79145651  0.90198847  0.89135560     0.36400
C707        C  0.75107234  0.91818593  0.87856331    -0.25800
C708        C  0.73427346  0.89991027  0.85135738     0.02900
C709        C  0.75855133  0.86493537  0.83640578     0.27700
C710        C  0.79898219  0.84882436  0.84890664    -0.24900
N711        N  0.80747367  0.92326838  0.91871695    -0.82300
H712        H  0.73293636  0.94575243  0.88983290     0.13500
C713        C  0.69214318  0.91880176  0.83824695     0.02800
N714        N  0.74281031  0.84505801  0.80837877    -0.80900
H715        H  0.81734100  0.82391731  0.83530206     0.18300
C716        C  0.69506393  0.94870986  0.81313410    -0.25700
C717        C  0.65594196  0.96682801  0.79961761     0.36300
C718        C  0.61287640  0.95446882  0.81143501    -0.19700
C719        C  0.61018933  0.92548677  0.83726325    -0.25000
C720        C  0.64945008  0.90732109  0.85066336     0.27700
H721        H  0.72810737  0.95784803  0.80404501     0.13500
N722        N  0.65988375  0.99787045  0.77408020    -0.82200
H723        H  0.57735223  0.91589811  0.84644715     0.18300
N724        N  0.64623765  0.87692115  0.87660357    -0.80800
H725        H  0.69384633  0.00293039  0.76803101     0.33900
H726        H  0.64687478  0.02879873  0.78175808     0.38400
H727        H  0.61242232  0.87201959  0.88307530     0.33900
H728        H  0.65914048  0.84579895  0.86919972     0.30600
H729        H  0.71049245  0.83260725  0.81282485     0.33900
H730        H  0.74049430  0.86994924  0.79128978     0.30600
H731        H  0.81246478  0.95714286  0.91360136     0.38500
H732        H  0.78236001  0.92134288  0.93614782     0.34000
loop_ 
_geom_bond_atom_site_label_1 
_geom_bond_atom_site_label_2 
_geom_bond_distance 
_geom_bond_site_symmetry_2 
_ccdc_geom_bond_type 
C1          C621   1.564       .  S
C1          C662   1.567       .  S
C1          C690   1.573       .  S
C1          C705   1.575       .  S
C2          C537   1.572       .  S
C2          C578   1.569       .  S
C2          C606   1.573       .  S
C2          C649   1.572       .  S
C3          C425   1.574       .  S
C3          C453   1.564       .  S
C3          C481   1.572       .  S
C3          C509   1.573       .  S
C4          C341   1.568       .  S
C4          C369   1.565       .  S
C4          C397   1.575       .  S
C4          C466   1.575       .  S
O5            C8   1.269       .  A
O5          Cd10   2.502       .  S
C6           O15   1.264       .  A
C6           O11   1.269       .  A
C6          C522   1.492       .  S
O7           C13   1.267       .  A
O7          Cd10   2.475       .  S
C8           O16   1.263       .  A
C8          C382   1.484       .  S
C9           O14   1.265   1_455  A
C9           O12   1.264       .  A
C9          C565   1.483       .  S
Cd10         O17   2.452       .  S
Cd10         O16   2.421       .  S
Cd10         O15   2.442   1_655  S
Cd10         O11   2.496   1_655  S
Cd10         O14   2.485       .  S
Cd10         O12   2.469   1_655  S
C13          O17   1.265       .  A
C13         C677   1.486       .  S
O18          C21   1.266       .  A
O18         Cd23   2.496       .  S
C19          O28   1.265       .  A
C19          O24   1.268       .  A
C19         C593   1.481       .  S
O20          C26   1.269       .  A
O20         Cd23   2.480   1_545  S
C21          O29   1.263       .  A
C21         C718   1.486       .  S
C22          O27   1.266       .  A
C22          O25   1.263       .  A
C22         C494   1.488       .  S
Cd23         O30   2.475   1_565  S
Cd23         O29   2.459       .  S
Cd23         O28   2.454   1_565  S
Cd23         O24   2.482   1_565  S
Cd23         O27   2.494       .  S
Cd23         O25   2.469       .  S
C26          O30   1.267       .  A
C26         C410   1.493       .  S
C31         C257   1.566       .  S
C31         C285   1.572       .  S
C31         C313   1.577       .  S
C31         C634   1.567       .  S
C32         C201   1.563       .  S
C32         C229   1.571       .  S
C32         C270   1.570       .  S
C32         C550   1.571       .  S
C33         C117   1.569       .  S
C33         C145   1.567       .  S
C33         C173   1.571       .  S
C33         C354   1.574       .  S
C34          C61   1.575       .  S
C34          C89   1.576       .  S
C34         C130   1.573       .  S
C34         C438   1.570       .  S
O35          C38   1.266       .  A
O35         Cd40   2.480       .  S
C36          O45   1.262       .  A
C36          O41   1.265       .  A
C36         C186   1.484       .  S
O37          C43   1.266       .  A
O37         Cd40   2.516       .  S
C38          O46   1.266       .  A
C38          C74   1.489       .  S
C39          O44   1.270   1_545  A
C39          O42   1.266       .  A
C39         C214   1.489       .  S
Cd40         O47   2.441       .  S
Cd40         O46   2.468       .  S
Cd40         O45   2.471   1_565  S
Cd40         O41   2.497   1_565  S
Cd40         O44   2.477       .  S
Cd40         O42   2.438   1_565  S
C43          O47   1.260       .  A
C43         C298   1.485       .  S
O48          C51   1.264   1_655  A
O48         Cd53   2.455       .  S
C49          O58   1.263       .  A
C49          O54   1.268       .  A
C49         C326   1.498       .  S
O50          C56   1.267       .  A
O50         Cd53   2.498       .  S
C51          O59   1.268       .  A
C51         C242   1.493       .  S
C52          O57   1.266       .  A
C52          O55   1.264       .  A
C52         C102   1.488       .  S
Cd53         O60   2.458       .  S
Cd53         O59   2.515   1_655  S
Cd53         O58   2.473       .  S
Cd53         O54   2.522       .  S
Cd53         O57   2.506   1_655  S
Cd53         O55   2.463   1_655  S
C56          O60   1.265       .  A
C56         C158   1.488       .  S
C61          C62   1.427       .  A
C61          C66   1.420       .  A
C62          C63   1.404       .  A
C62          N67   1.432       .  S
C63          C64   1.397       .  A
C63          H68   1.084       .  S
C64          C69   1.486       .  S
C64          C65   1.406       .  A
C65          C66   1.407       .  A
C65          N70   1.438       .  S
C66          H71   1.078       .  S
N67          H87   1.046       .  S
N67          H88   1.046       .  S
C69          C72   1.402       .  A
C69          C76   1.409       .  A
N70          H85   1.045       .  S
N70          H86   1.046       .  S
C72          C73   1.408       .  A
C72          H77   1.084       .  S
C73          C74   1.416       .  A
C73          N78   1.438       .  S
C74          C75   1.407       .  A
C75          C76   1.407       .  A
C75          H79   1.083       .  S
C76          N80   1.438       .  S
N78          H81   1.046       .  S
N78          H82   1.045       .  S
N80          H83   1.045       .  S
N80          H84   1.046       .  S
C89          C90   1.440       .  A
C89          C94   1.420       .  A
C90          C91   1.402       .  A
C90          N95   1.433       .  S
C91          C92   1.395       .  A
C91          H96   1.084       .  S
C92          C97   1.485       .  S
C92          C93   1.403       .  A
C93          C94   1.405       .  A
C93          N98   1.439       .  S
C94          H99   1.076       .  S
N95         H115   1.042       .  S
N95         H116   1.042       .  S
C97         C100   1.403       .  A
C97         C104   1.408       .  A
N98         H113   1.046       .  S
N98         H114   1.046       .  S
C100        C101   1.409       .  A
C100        H105   1.084       .  S
C101        C102   1.416       .  A
C101        N106   1.438       .  S
C102        C103   1.406       .  A
C103        C104   1.406       .  A
C103        H107   1.084       .  S
C104        N108   1.438       .  S
N106        H109   1.046       .  S
N106        H110   1.046       .  S
N108        H111   1.046       .  S
N108        H112   1.046       .  S
C117        C118   1.428       .  A
C117        C122   1.417       .  A
C118        C119   1.408       .  A
C118        N123   1.432       .  S
C119        C120   1.399       .  A
C119        H124   1.084       .  S
C120        C125   1.487       .  S
C120        C121   1.406       .  A
C121        C122   1.403       .  A
C121        N126   1.438       .  S
C122        H127   1.083       .  S
N123        H143   1.046       .  S
N123        H144   1.045       .  S
C125        C128   1.399       .  A
C125        C132   1.403       .  A
N126        H141   1.045       .  S
N126        H142   1.046       .  S
C128        C129   1.409       .  A
C128        H133   1.084       .  S
C129        C130   1.427       .  A
C129        N134   1.432       .  S
C130        C131   1.420       .  A
C131        C132   1.399       .  A
C131        H135   1.077       .  S
C132        N136   1.434       .  S
N134        H137   1.046       .  S
N134        H138   1.046       .  S
N136        H139   1.046       .  S
N136        H140   1.046       .  S
C145        C146   1.426       .  A
C145        C150   1.419       .  A
C146        C147   1.403       .  A
C146        N151   1.433       .  S
C147        C148   1.399       .  A
C147        H152   1.084       .  S
C148        C153   1.491       .  S
C148        C149   1.408       .  A
C149        C150   1.408       .  A
C149        N154   1.438       .  S
C150        H155   1.078       .  S
N151        H171   1.046       .  S
N151        H172   1.045       .  S
C153        C156   1.405       .  A
C153        C160   1.411       .  A
N154        H169   1.046       .  S
N154        H170   1.045       .  S
C156        C157   1.411       .  A
C156        H161   1.084       .  S
C157        C158   1.416       .  A
C157        N162   1.438       .  S
C158        C159   1.405       .  A
C159        C160   1.405       .  A
C159        H163   1.084       .  S
C160        N164   1.438       .  S
N162        H165   1.046       .  S
N162        H166   1.045       .  S
N164        H167   1.046       .  S
N164        H168   1.046       .  S
C173        C174   1.424       .  A
C173        C178   1.419       .  A
C174        C175   1.403       .  A
C174        N179   1.431       .  S
C175        C176   1.397       .  A
C175        H180   1.084       .  S
C176        C181   1.486       .  S
C176        C177   1.405       .  A
C177        C178   1.409       .  A
C177        N182   1.438       .  S
C178        H183   1.079       .  S
N179        H199   1.046       .  S
N179        H200   1.046       .  S
C181        C184   1.403       .  A
C181        C188   1.409       .  A
N182        H197   1.046       .  S
N182        H198   1.045       .  S
C184        C185   1.409       .  A
C184        H189   1.084       .  S
C185        C186   1.413       .  A
C185        N190   1.438       .  S
C186        C187   1.406       .  A
C187        C188   1.406       .  A
C187        H191   1.084       .  S
C188        N192   1.438       .  S
N190        H193   1.046       .  S
N190        H194   1.046       .  S
N192        H195   1.046       .  S
N192        H196   1.045       .  S
C201        C202   1.426       .  A
C201        C206   1.416       .  A
C202        C203   1.402       .  A
C202        N207   1.432       .  S
C203        C204   1.397       .  A
C203        H208   1.084       .  S
C204        C209   1.485       .  S
C204        C205   1.407       .  A
C205        C206   1.406       .  A
C205        N210   1.438   1_545  S
C206        H211   1.079       .  S
N207        H227   1.046       .  S
N207        H228   1.046       .  S
C209        C212   1.401       .  A
C209        C216   1.410       .  A
N210        H225   1.046       .  S
N210        H226   1.046       .  S
C212        C213   1.405       .  A
C212        H217   1.084       .  S
C213        C214   1.418       .  A
C213        N218   1.438       .  S
C214        C215   1.407       .  A
C215        C216   1.407       .  A
C215        H219   1.083   1_545  S
C216        N220   1.438       .  S
N218        H221   1.046       .  S
N218        H222   1.046       .  S
N220        H223   1.046       .  S
N220        H224   1.046   1_545  S
C229        C230   1.426       .  A
C229        C234   1.417       .  A
C230        C231   1.405       .  A
C230        N235   1.432       .  S
C231        C232   1.401       .  A
C231        H236   1.084       .  S
C232        C237   1.496       .  S
C232        C233   1.409       .  A
C233        C234   1.407       .  A
C233        N238   1.438       .  S
C234        H239   1.078       .  S
N235        H255   1.046       .  S
N235        H256   1.046       .  S
C237        C240   1.407       .  A
C237        C244   1.413       .  A
N238        H253   1.045       .  S
N238        H254   1.046       .  S
C240        C241   1.408       .  A
C240        H245   1.084       .  S
C241        C242   1.413       .  A
C241        N246   1.432       .  S
C242        C243   1.407   1_455  A
C243        C244   1.406   1_655  A
C243        H247   1.083       .  S
C244        N248   1.438   1_455  S
N246        H249   1.046       .  S
N246        H250   1.046       .  S
N248        H251   1.046       .  S
N248        H252   1.045       .  S
C257        C258   1.427       .  A
C257        C262   1.415       .  A
C258        C259   1.403       .  A
C258        N263   1.431       .  S
C259        C260   1.398       .  A
C259        H264   1.084       .  S
C260        C265   1.489       .  S
C260        C261   1.407       .  A
C261        C262   1.405       .  A
C261        N266   1.432       .  S
C262        H267   1.080       .  S
N263        H283   1.046       .  S
N263        H284   1.045       .  S
C265        C268   1.401   1_565  A
C265        C272   1.404   1_655  A
N266        H281   1.046       .  S
N266        H282   1.046       .  S
C268        C269   1.409       .  A
C268        H273   1.084       .  S
C269        C270   1.430   1_655  A
C269        N274   1.432       .  S
C270        C271   1.415       .  A
C271        C272   1.399   1_545  A
C271        H275   1.076   1_545  S
C272        N276   1.433       .  S
N274        H277   1.046       .  S
N274        H278   1.046       .  S
N276        H279   1.046       .  S
N276        H280   1.046       .  S
C285        C286   1.433       .  A
C285        C290   1.418       .  A
C286        C287   1.407       .  A
C286        N291   1.431       .  S
C287        C288   1.398       .  A
C287        H292   1.084       .  S
C288        C293   1.486       .  S
C288        C289   1.405       .  A
C289        C290   1.402       .  A
C289        N294   1.438       .  S
C290        H295   1.083       .  S
N291        H311   1.046       .  S
N291        H312   1.046       .  S
C293        C296   1.401       .  A
C293        C300   1.412       .  A
N294        H309   1.045       .  S
N294        H310   1.046       .  S
C296        C297   1.404       .  A
C296        H301   1.084       .  S
C297        C298   1.415       .  A
C297        N302   1.438       .  S
C298        C299   1.405       .  A
C299        C300   1.409       .  A
C299        H303   1.083       .  S
C300        N304   1.438       .  S
N302        H305   1.045       .  S
N302        H306   1.046       .  S
N304        H307   1.046       .  S
N304        H308   1.045       .  S
C313        C314   1.425       .  A
C313        C318   1.421       .  A
C314        C315   1.404       .  A
C314        N319   1.430       .  S
C315        C316   1.397       .  A
C315        H320   1.084       .  S
C316        C321   1.488       .  S
C316        C317   1.413       .  A
C317        C318   1.406       .  A
C317        N322   1.439       .  S
C318        H323   1.080       .  S
N319        H339   1.046       .  S
N319        H340   1.046       .  S
C321        C324   1.400       .  A
C321        C328   1.409       .  A
N322        H337   1.046       .  S
N322        H338   1.043       .  S
C324        C325   1.409       .  A
C324        H329   1.084       .  S
C325        C326   1.420       .  A
C325        N330   1.438       .  S
C326        C327   1.409       .  A
C327        C328   1.411       .  A
C327        H331   1.083       .  S
C328        N332   1.437       .  S
N330        H333   1.046       .  S
N330        H334   1.046       .  S
N332        H335   1.046       .  S
N332        H336   1.045       .  S
C341        C342   1.429       .  A
C341        C346   1.416       .  A
C342        C343   1.408       .  A
C342        N347   1.432       .  S
C343        C344   1.400       .  A
C343        H348   1.084       .  S
C344        C349   1.486       .  S
C344        C345   1.404       .  A
C345        C346   1.400       .  A
C345        N350   1.432       .  S
C346        H351   1.083       .  S
N347        H367   1.045       .  S
N347        H368   1.045       .  S
C349        C352   1.398       .  A
C349        C356   1.406       .  A
N350        H365   1.045       .  S
N350        H366   1.046       .  S
C352        C353   1.406       .  A
C352        H357   1.084       .  S
C353        C354   1.426       .  A
C353        N358   1.432       .  S
C354        C355   1.420       .  A
C355        C356   1.403       .  A
C355        H359   1.078       .  S
C356        N360   1.439       .  S
N358        H361   1.046       .  S
N358        H362   1.046       .  S
N360        H363   1.045       .  S
N360        H364   1.046       .  S
C369        C370   1.428       .  A
C369        C374   1.417       .  A
C370        C371   1.404       .  A
C370        N375   1.433       .  S
C371        C372   1.396       .  A
C371        H376   1.084       .  S
C372        C377   1.480       .  S
C372        C373   1.404       .  A
C373        C374   1.404       .  A
C373        N378   1.438       .  S
C374        H379   1.077       .  S
N375        H395   1.045       .  S
N375        H396   1.046       .  S
C377        C380   1.398       .  A
C377        C384   1.409       .  A
N378        H393   1.045       .  S
N378        H394   1.046       .  S
C380        C381   1.402       .  A
C380        H385   1.084       .  S
C381        C382   1.417       .  A
C381        N386   1.438       .  S
C382        C383   1.407       .  A
C383        C384   1.409       .  A
C383        H387   1.083       .  S
C384        N388   1.437       .  S
N386        H389   1.046       .  S
N386        H390   1.046       .  S
N388        H391   1.045       .  S
N388        H392   1.046       .  S
C397        C398   1.424       .  A
C397        C402   1.420       .  A
C398        C399   1.405       .  A
C398        N403   1.432       .  S
C399        C400   1.401       .  A
C399        H404   1.084       .  S
C400        C405   1.496       .  S
C400        C401   1.408       .  A
C401        C402   1.409       .  A
C401        N406   1.438       .  S
C402        H407   1.077       .  S
N403        H423   1.046       .  S
N403        H424   1.046       .  S
C405        C408   1.405       .  A
C405        C412   1.412       .  A
N406        H421   1.046       .  S
N406        H422   1.045       .  S
C408        C409   1.410       .  A
C408        H413   1.084       .  S
C409        C410   1.417       .  A
C409        N414   1.438       .  S
C410        C411   1.406       .  A
C411        C412   1.408       .  A
C411        H415   1.083       .  S
C412        N416   1.438       .  S
N414        H417   1.045       .  S
N414        H418   1.046       .  S
N416        H419   1.046       .  S
N416        H420   1.045       .  S
C425        C426   1.433       .  A
C425        C430   1.421       .  A
C426        C427   1.397       .  A
C426        N431   1.430       .  S
C427        C428   1.393       .  A
C427        H432   1.085       .  S
C428        C433   1.484       .  S
C428        C429   1.405       .  A
C429        C430   1.410       .  A
C429        N434   1.437       .  S
C430        H435   1.083       .  S
N431        H451   1.046       .  S
N431        H452   1.046       .  S
C433        C436   1.399       .  A
C433        C440   1.412       .  A
N434        H449   1.045       .  S
N434        H450   1.045       .  S
C436        C437   1.406       .  A
C436        H441   1.084       .  S
C437        C438   1.428       .  A
C437        N442   1.431       .  S
C438        C439   1.417       .  A
C439        C440   1.398       .  A
C439        H443   1.083       .  S
C440        N444   1.440       .  S
N442        H445   1.046       .  S
N442        H446   1.045       .  S
N444        H447   1.045       .  S
N444        H448   1.044       .  S
C453        C454   1.427       .  A
C453        C458   1.416       .  A
C454        C455   1.403       .  A
C454        N459   1.433       .  S
C455        C456   1.399       .  A
C455        H460   1.084       .  S
C456        C461   1.485       .  S
C456        C457   1.410       .  A
C457        C458   1.401       .  A
C457        N462   1.433       .  S
C458        H463   1.079       .  S
N459        H479   1.045       .  S
N459        H480   1.045       .  S
C461        C464   1.399       .  A
C461        C468   1.405       .  A
N462        H477   1.044       .  S
N462        H478   1.046       .  S
C464        C465   1.408       .  A
C464        H469   1.083       .  S
C465        C466   1.426       .  A
C465        N470   1.432       .  S
C466        C467   1.418       .  A
C467        C468   1.399       .  A
C467        H471   1.077       .  S
C468        N472   1.438       .  S
N470        H473   1.046       .  S
N470        H474   1.046       .  S
N472        H475   1.046       .  S
N472        H476   1.045       .  S
C481        C482   1.426       .  A
C481        C486   1.417       .  A
C482        C483   1.403       .  A
C482        N487   1.433       .  S
C483        C484   1.400       .  A
C483        H488   1.084       .  S
C484        C489   1.494       .  S
C484        C485   1.410       .  A
C485        C486   1.407       .  A
C485        N490   1.438       .  S
C486        H491   1.076       .  S
N487        H507   1.046       .  S
N487        H508   1.046       .  S
C489        C492   1.405       .  A
C489        C496   1.413       .  A
N490        H505   1.045       .  S
N490        H506   1.046       .  S
C492        C493   1.408       .  A
C492        H497   1.083       .  S
C493        C494   1.414       .  A
C493        N498   1.438       .  S
C494        C495   1.406       .  A
C495        C496   1.406       .  A
C495        H499   1.083       .  S
C496        N500   1.438       .  S
N498        H501   1.045       .  S
N498        H502   1.046       .  S
N500        H503   1.045       .  S
N500        H504   1.046       .  S
C509        C510   1.426       .  A
C509        C514   1.421       .  A
C510        C511   1.404       .  A
C510        N515   1.431       .  S
C511        C512   1.398       .  A
C511        H516   1.084       .  S
C512        C517   1.488       .  S
C512        C513   1.406       .  A
C513        C514   1.406       .  A
C513        N518   1.439       .  S
C514        H519   1.078       .  S
N515        H535   1.046       .  S
N515        H536   1.046       .  S
C517        C520   1.401       .  A
C517        C524   1.411       .  A
N518        H533   1.046       .  S
N518        H534   1.045       .  S
C520        C521   1.405       .  A
C520        H525   1.084       .  S
C521        C522   1.419       .  A
C521        N526   1.438       .  S
C522        C523   1.408       .  A
C523        C524   1.409       .  A
C523        H527   1.083       .  S
C524        N528   1.438       .  S
N526        H529   1.046       .  S
N526        H530   1.046       .  S
N528        H531   1.046       .  S
N528        H532   1.045       .  S
C537        C538   1.427       .  A
C537        C542   1.416       .  A
C538        C539   1.403       .  A
C538        N543   1.433       .  S
C539        C540   1.403       .  A
C539        H544   1.082       .  S
C540        C545   1.506   1_556  S
C540        C541   1.415       .  A
C541        C542   1.409       .  A
C541        N546   1.439       .  S
C542        H547   1.076       .  S
N543        H563   1.045   1_455  S
N543        H564   1.046   1_455  S
C545        C548   1.402       .  A
C545        C552   1.415       .  A
N546        H561   1.045       .  S
N546        H562   1.046   1_556  S
C548        C549   1.404       .  A
C548        H553   1.083       .  S
C549        C550   1.430       .  A
C549        N554   1.433       .  S
C550        C551   1.413       .  A
C551        C552   1.409       .  A
C551        H555   1.081       .  S
C552        N556   1.438       .  S
N554        H557   1.046   1_545  S
N554        H558   1.046       .  S
N556        H559   1.045       .  S
N556        H560   1.046       .  S
C565        C566   1.410       .  A
C565        C570   1.405   1_455  A
C566        C567   1.403       .  A
C566        N571   1.432       .  S
C567        C568   1.403       .  A
C567        H572   1.084       .  S
C568        C573   1.488       .  S
C568        C569   1.412       .  A
C569        C570   1.409   1_455  A
C569        N574   1.438   1_455  S
C570        H575   1.084       .  S
N571        H591   1.045       .  S
N571        H592   1.046       .  S
C573        C576   1.398       .  A
C573        C580   1.406       .  A
N574        H589   1.046       .  S
N574        H590   1.046       .  S
C576        C577   1.405       .  A
C576        H581   1.084       .  S
C577        C578   1.430       .  A
C577        N582   1.431       .  S
C578        C579   1.419       .  A
C579        C580   1.405       .  A
C579        H583   1.083       .  S
C580        N584   1.438       .  S
N582        H585   1.046       .  S
N582        H586   1.046       .  S
N584        H587   1.045       .  S
N584        H588   1.046       .  S
C593        C594   1.413       .  A
C593        C598   1.405       .  A
C594        C595   1.407       .  A
C594        N599   1.438   1_545  S
C595        C596   1.402       .  A
C595        H600   1.084       .  S
C596        C601   1.481       .  S
C596        C597   1.408       .  A
C597        C598   1.406       .  A
C597        N602   1.438       .  S
C598        H603   1.084       .  S
N599        H619   1.046       .  S
N599        H620   1.046       .  S
C601        C604   1.397       .  A
C601        C608   1.403       .  A
N602        H617   1.046       .  S
N602        H618   1.045       .  S
C604        C605   1.406       .  A
C604        H609   1.084       .  S
C605        C606   1.427       .  A
C605        N610   1.432       .  S
C606        C607   1.419       .  A
C607        C608   1.403       .  A
C607        H611   1.078       .  S
C608        N612   1.439       .  S
N610        H613   1.046       .  S
N610        H614   1.046       .  S
N612        H615   1.046   1_545  S
N612        H616   1.045       .  S
C621        C622   1.426       .  A
C621        C626   1.416       .  A
C622        C623   1.400       .  A
C622        N627   1.431       .  S
C623        C624   1.398       .  A
C623        H628   1.084       .  S
C624        C629   1.486   1_556  S
C624        C625   1.406       .  A
C625        C626   1.406       .  A
C625        N630   1.432       .  S
C626        H631   1.079       .  S
N627        H647   1.046       .  S
N627        H648   1.045       .  S
C629        C632   1.396       .  A
C629        C636   1.403       .  A
N630        H645   1.045       .  S
N630        H646   1.046       .  S
C632        C633   1.398       .  A
C632        H637   1.085       .  S
C633        C634   1.433       .  A
C633        N638   1.433       .  S
C634        C635   1.419       .  A
C635        C636   1.408       .  A
C635        H639   1.083       .  S
C636        N640   1.431       .  S
N638        H641   1.046       .  S
N638        H642   1.045       .  S
N640        H643   1.046       .  S
N640        H644   1.045       .  S
C649        C650   1.426       .  A
C649        C654   1.421       .  A
C650        C651   1.399   1_545  A
C650        N655   1.434       .  S
C651        C652   1.398   1_455  A
C651        H656   1.084       .  S
C652        C657   1.484       .  S
C652        C653   1.403   1_565  A
C653        C654   1.405   1_655  A
C653        N658   1.432       .  S
C654        H659   1.078       .  S
N655        H675   1.046   1_545  S
N655        H676   1.046   1_545  S
C657        C660   1.395       .  A
C657        C664   1.404       .  A
N658        H673   1.045       .  S
N658        H674   1.046       .  S
C660        C661   1.398       .  A
C660        H665   1.085       .  S
C661        C662   1.432       .  A
C661        N666   1.433       .  S
C662        C663   1.419       .  A
C663        C664   1.408       .  A
C663        H667   1.084       .  S
C664        N668   1.432       .  S
N666        H669   1.046       .  S
N666        H670   1.046       .  S
N668        H671   1.045       .  S
N668        H672   1.046       .  S
C677        C678   1.414       .  A
C677        C682   1.408       .  A
C678        C679   1.405       .  A
C678        N683   1.432       .  S
C679        C680   1.401       .  A
C679        H684   1.084       .  S
C680        C685   1.478       .  S
C680        C681   1.404       .  A
C681        C682   1.402       .  A
C681        N686   1.432       .  S
C682        H687   1.083       .  S
N683        H703   1.046   1_655  S
N683        H704   1.046       .  S
C685        C688   1.395       .  A
C685        C692   1.404       .  A
N686        H701   1.045       .  S
N686        H702   1.046       .  S
C688        C689   1.405       .  A
C688        H693   1.084       .  S
C689        C690   1.434       .  A
C689        N694   1.431       .  S
C690        C691   1.420       .  A
C691        C692   1.397       .  A
C691        H695   1.084       .  S
C692        N696   1.433       .  S
N694        H697   1.046       .  S
N694        H698   1.046       .  S
N696        H699   1.045       .  S
N696        H700   1.045       .  S
C705        C706   1.428       .  A
C705        C710   1.421       .  A
C706        C707   1.405       .  A
C706        N711   1.430       .  S
C707        C708   1.395       .  A
C707        H712   1.084       .  S
C708        C713   1.482       .  S
C708        C709   1.406       .  A
C709        C710   1.400       .  A
C709        N714   1.433       .  S
C710        H715   1.079       .  S
N711        H731   1.046       .  S
N711        H732   1.046       .  S
C713        C716   1.400       .  A
C713        C720   1.408       .  A
N714        H729   1.045       .  S
N714        H730   1.045       .  S
C716        C717   1.406       .  A
C716        H721   1.084       .  S
C717        C718   1.416       .  A
C717        N722   1.438       .  S
C718        C719   1.407       .  A
C719        C720   1.408       .  A
C719        H723   1.083       .  S
C720        N724   1.437       .  S
N722        H725   1.046   1_565  S
N722        H726   1.045   1_565  S
N724        H727   1.045       .  S
N724        H728   1.046       .  S
