geometry optimzed in LAMMPS
_audit_creation_date              2020-11-30 
_audit_creation_method            'lammps2cif' 
_symmetry_space_group_name_H-M    'P1' 
_symmetry_Int_Tables_number       1 
_symmetry_cell_setting            triclinic 
loop_ 
_symmetry_equiv_pos_as_xyz 
  x,y,z 
_cell_length_a                    40.3234434 
_cell_length_b                    43.767398051745396 
_cell_length_c                    43.507303781177775 
_cell_angle_alpha                 89.95355057690496 
_cell_angle_beta                  89.3815855179064 
_cell_angle_gamma                 88.08607785589862 
loop_ 
_atom_site_label 
_atom_site_type_symbol 
_atom_site_fract_x 
_atom_site_fract_y 
_atom_site_fract_z 
_atom_site_charge 
Zr1        Zr  0.80182915  0.78116616  0.76518668     2.17500
O2          O  0.85548511  0.80535288  0.76258635    -0.51700
O3          O  0.78775538  0.79609676  0.81785335    -0.74900
O4          O  0.79783848  0.83572228  0.75580436    -0.81700
O5          O  0.84478371  0.70893706  0.79387798    -0.83400
O6          O  0.75635544  0.84533186  0.72176677    -0.79000
O7          O  0.84858805  0.76070394  0.79263481    -0.90700
O8          O  0.74262890  0.77021148  0.83281762    -0.76600
O9          O  0.74343372  0.79067277  0.76514120    -0.86100
O10         O  0.77942289  0.73748371  0.78947323    -0.85800
O11         O  0.78837043  0.78677219  0.71176298    -0.72600
O12         O  0.82105973  0.73762973  0.73548123    -0.84700
Zr13       Zr  0.72400778  0.70955709  0.70501607     2.26400
Zr14       Zr  0.72932377  0.79609747  0.71192481     2.06300
Zr15       Zr  0.79749360  0.69415431  0.75986562     2.10000
Zr16       Zr  0.72105085  0.74621603  0.78818495     1.78800
O17         O  0.84132777  0.66265636  0.73575017    -0.93500
O18         O  0.67953107  0.78449666  0.80507905    -0.41300
O19         O  0.73847797  0.70302095  0.75814191    -0.78000
O20         O  0.70529956  0.75236391  0.73590851    -0.96600
O21         O  0.74700071  0.75288021  0.68093317    -0.90000
O22         O  0.78243928  0.69891596  0.70656217    -0.92800
C23         C  0.76638522  0.78798898  0.83815102     1.01000
C24         C  0.85873301  0.73422385  0.80145802     1.13900
C25         C  0.78065583  0.85377118  0.73858596     1.04700
O26         O  0.68675498  0.83189249  0.73165703    -0.94900
O27         O  0.67586416  0.78452809  0.68804554    -0.90700
O28         O  0.67458702  0.73284214  0.68222974    -0.83800
C29         C  0.66165592  0.75987118  0.67978290     1.11300
O30         O  0.85683450  0.76943940  0.67773879    -0.96900
Zr31       Zr  0.80527710  0.74230067  0.68250878     1.88900
O32         O  0.73585256  0.69427110  0.65215715    -0.73600
O33         O  0.73048846  0.82078583  0.66173687    -0.52800
O34         O  0.80572605  0.77441157  0.63679011    -0.97500
O35         O  0.85239605  0.70747153  0.67181413    -0.54700
O36         O  0.78619227  0.71189925  0.63951880    -0.74100
C37         C  0.76008476  0.69714757  0.63315913     0.98300
O38         O  0.67513062  0.67827572  0.70956964    -0.62900
O39         O  0.79893952  0.66117034  0.80501605    -0.57700
O40         O  0.72832418  0.65552597  0.71409388    -0.94400
O41         O  0.76355706  0.64796261  0.75417664    -0.92800
O42         O  0.71796380  0.70692635  0.82768987    -0.93200
O43         O  0.66640525  0.72450483  0.79297165    -0.92000
C44         C  0.74122980  0.63893361  0.73529407     1.17100
H45         H  0.78718200  0.73490829  0.81025235     0.33000
H46         H  0.68140807  0.75431027  0.73638008     0.43900
H47         H  0.78826647  0.68037145  0.69547129     0.37400
H48         H  0.79951114  0.80395131  0.70302199     0.33900
H49         H  0.69200133  0.80326937  0.80854906     0.25700
H50         H  0.73415016  0.84262973  0.66593612     0.31600
H51         H  0.81957137  0.76272669  0.62164692     0.37500
H52         H  0.74126995  0.70007359  0.83111150     0.32000
H53         H  0.82129601  0.65110045  0.80452454     0.30900
H54         H  0.83386185  0.64145427  0.73813449     0.32600
H55         H  0.85811894  0.71124470  0.64997832     0.31500
H56         H  0.66379454  0.71266212  0.77382697     0.35500
H57         H  0.65778167  0.69127706  0.71985595     0.28300
H58         H  0.85446434  0.82210657  0.77789760     0.32500
H59         H  0.86484090  0.77122652  0.69907634     0.35300
H60         H  0.79931748  0.67526534  0.82278488     0.27900
H61         H  0.66710489  0.67536629  0.68837862     0.40800
H62         H  0.69296261  0.83548630  0.75327866     0.30900
H63         H  0.66619838  0.78908420  0.78655826     0.38500
H64         H  0.84316123  0.68680186  0.67190251     0.30300
H65         H  0.75148117  0.81313767  0.65205412     0.30400
H66         H  0.85643170  0.81560654  0.74231027     0.30700
C67         C  0.88228564  0.99596467  0.79021795     0.86100
C68         C  0.85972870  0.96857065  0.78537464    -0.54100
C69         C  0.84288423  0.96901540  0.75812849     0.09100
C70         C  0.85082697  0.99693988  0.73757116     0.20000
C71         C  0.90528268  0.99452770  0.76149865    -0.54800
C72         C  0.88907835  0.99531678  0.73405804     0.09200
C73         C  0.85973092  0.02421795  0.78533031    -0.54400
C74         C  0.84350439  0.02545636  0.75799449     0.09700
H75         H  0.85850077  0.94942235  0.80114112     0.14200
H76         H  0.83773497  0.99750123  0.71524576     0.00000
H77         H  0.93216096  0.99313675  0.76246255     0.14600
H78         H  0.85775143  0.04265222  0.80204775     0.14300
Zr79       Zr  0.77957389  0.21529399  0.70697930     2.17500
O80         O  0.83033568  0.19159029  0.68532871    -0.51700
O81         O  0.76597411  0.20176076  0.65467636    -0.74900
O82         O  0.78790983  0.16212012  0.72257133    -0.81700
O83         O  0.81793011  0.29598663  0.69821623    -0.83400
O84         O  0.74461578  0.14743986  0.75234501    -0.79000
O85         O  0.82876171  0.24468169  0.69765842    -0.90700
O86         O  0.71165871  0.21373640  0.64628048    -0.76600
O87         O  0.72293366  0.20170235  0.70963115    -0.86100
O88         O  0.74920918  0.25750476  0.68506137    -0.85800
O89         O  0.76864275  0.20712083  0.76091012    -0.72600
O90         O  0.79134298  0.25895616  0.73728766    -0.84700
Zr91       Zr  0.69212813  0.28097190  0.77259396     2.26400
Zr92       Zr  0.71104682  0.19469587  0.76328866     2.06300
Zr93       Zr  0.76050843  0.30120163  0.71605823     2.10000
Zr94       Zr  0.69243574  0.24448784  0.68911050     1.78800
O95         O  0.79185050  0.34300900  0.73674484    -0.93500
O96         O  0.64838552  0.20836980  0.68276436    -0.41300
O97         O  0.70340399  0.28861465  0.71909411    -0.78000
O98         O  0.67900511  0.23708054  0.74219265    -0.96600
O99         O  0.72290435  0.23863344  0.79376907    -0.90000
O100        O  0.74877960  0.29441960  0.76966326    -0.92800
C101        C  0.73985798  0.20194563  0.63820319     1.01000
C102        C  0.83755235  0.27249456  0.69472426     1.13900
C103        C  0.77254610  0.14204072  0.73826386     1.04700
O104        O  0.67043761  0.16071499  0.74224586    -0.94900
O105        O  0.66164625  0.20172551  0.79643337    -0.90700
O106        O  0.64941635  0.25285108  0.79869248    -0.83800
C107        C  0.64351035  0.22499759  0.80513654     1.11300
O108        O  0.83646093  0.23098219  0.79014703    -0.96900
Zr109      Zr  0.77956081  0.25172673  0.79018054     1.88900
O110        O  0.70649496  0.29580381  0.82460260    -0.73600
O111        O  0.71715367  0.16568203  0.81079787    -0.52800
O112        O  0.78845179  0.21634095  0.83276747    -0.97500
O113        O  0.81893666  0.29166279  0.79982122    -0.54700
O114        O  0.75745584  0.27568218  0.83566234    -0.74100
C115        C  0.73078476  0.29064058  0.84293664     0.98300
O116        O  0.63915869  0.30926373  0.77806699    -0.62900
O117        O  0.76041210  0.32223519  0.66418989    -0.57700
O118        O  0.68380389  0.33461785  0.75781624    -0.94400
O119        O  0.72314733  0.34587365  0.72244520    -0.92800
O120        O  0.68975899  0.27720870  0.64384185    -0.93200
O121        O  0.63889105  0.27116350  0.68321378    -0.92000
C122        C  0.69746484  0.35321274  0.73895144     1.17100
H123        H  0.75583026  0.26091371  0.66394776     0.33000
H124        H  0.65563804  0.23324824  0.74350307     0.43900
H125        H  0.75236725  0.31301628  0.78095664     0.37400
H126        H  0.78256252  0.19118022  0.76970226     0.33900
H127        H  0.64273534  0.20960803  0.66069432     0.25700
H128        H  0.70860474  0.14529157  0.80604256     0.31600
H129        H  0.76588667  0.21068802  0.83933787     0.37500
H130        H  0.69025298  0.29828605  0.65203530     0.32000
H131        H  0.73886503  0.33357098  0.66243791     0.30900
H132        H  0.78664711  0.36069186  0.72322510     0.32600
H133        H  0.80535075  0.30977653  0.80644722     0.31500
H134        H  0.63634291  0.28403068  0.70185651     0.35500
H135        H  0.62242316  0.29653058  0.76822358     0.28300
H136        H  0.82351116  0.17298287  0.67446932     0.32500
H137        H  0.84557863  0.23642308  0.81038806     0.35300
H138        H  0.77712712  0.33828556  0.66455830     0.27900
H139        H  0.63352612  0.30918650  0.80028322     0.40800
H140        H  0.68256925  0.14909184  0.72589975     0.30900
H141        H  0.65953660  0.18803082  0.68508877     0.38500
H142        H  0.82752059  0.29715865  0.77920609     0.30300
H143        H  0.74138183  0.16214780  0.81310007     0.30400
H144        H  0.84339242  0.18396394  0.70306707     0.30700
C145        C  0.65334332  0.53540818  0.73838654     0.86100
C146        C  0.62942074  0.53597876  0.76611735    -0.54100
C147        C  0.60698976  0.51335434  0.76644901     0.09100
C148        C  0.60925671  0.49241927  0.73795316     0.20000
C149        C  0.66825369  0.50261421  0.73773948    -0.54800
C150        C  0.64554813  0.47995874  0.73756302     0.09200
C151        C  0.62946783  0.53706776  0.71084185    -0.54400
C152        C  0.60656527  0.51454056  0.71030370     0.09700
H153        H  0.62950636  0.55257369  0.78452955     0.14200
H154        H  0.59057615  0.47438833  0.73765293     0.00000
H155        H  0.69485156  0.49780307  0.73782626     0.14600
H156        H  0.63053297  0.55457842  0.69321295     0.14300
C157        C  0.76176479  0.64313729  0.45352260     0.86100
C158        C  0.72685887  0.63086368  0.45305309    -0.54100
C159        C  0.71830513  0.61480789  0.47832445     0.09100
C160        C  0.74560799  0.61211604  0.50273902     0.20000
C161        C  0.76294987  0.66166068  0.48375370    -0.54800
C162        C  0.75477409  0.64536906  0.50951612     0.09200
C163        C  0.78481253  0.61522896  0.45992082    -0.54400
C164        C  0.77618450  0.59857561  0.48526938     0.09700
H165        H  0.70989692  0.63475042  0.43406567     0.14200
H166        H  0.73842540  0.59877995  0.52334078     0.00000
H167        H  0.77056205  0.68506585  0.48545540     0.14600
H168        H  0.80626666  0.60912387  0.44562767     0.14300
Zr169      Zr  0.71373679  0.79411590  0.20799311     2.17500
O170        O  0.65847512  0.81856231  0.20636403    -0.51700
O171        O  0.72724143  0.81267937  0.15641508    -0.74900
O172        O  0.71204921  0.84711805  0.22465128    -0.81700
O173        O  0.67084398  0.72052097  0.18556088    -0.83400
O174        O  0.75161941  0.85484874  0.26019489    -0.79000
O175        O  0.66617274  0.77236061  0.18403189    -0.90700
O176        O  0.77942387  0.79488549  0.14487256    -0.76600
O177        O  0.77157613  0.80362373  0.21011328    -0.86100
O178        O  0.73992288  0.75188567  0.18185387    -0.85800
O179        O  0.72611962  0.79651734  0.26199063    -0.72600
O180        O  0.69744679  0.74926496  0.23542219    -0.84700
Zr181      Zr  0.79498179  0.71747765  0.26383708     2.26400
Zr182      Zr  0.78454707  0.80538603  0.26396871     2.06300
Zr183      Zr  0.72417918  0.70698293  0.20917973     2.10000
Zr184      Zr  0.79771006  0.76060779  0.18490486     1.78800
O185        O  0.68427385  0.66966091  0.22564084    -0.93500
O186        O  0.84462951  0.79371658  0.17841809    -0.41300
O187        O  0.78259105  0.71455230  0.21046090    -0.78000
O188        O  0.81179866  0.76292986  0.23785896    -0.96600
O189        O  0.76939224  0.75981829  0.29042346    -0.90000
O190        O  0.73723824  0.70876043  0.26252033    -0.92800
C191        C  0.75284858  0.81029783  0.13861246     1.01000
C192        C  0.65520186  0.74572956  0.17878737     1.13900
C193        C  0.72607117  0.86409297  0.24438592     1.04700
O194        O  0.82528811  0.84029453  0.24401785    -0.94900
O195        O  0.83512713  0.78855793  0.29291974    -0.90700
O196        O  0.83768225  0.73644561  0.29549132    -0.83800
C197        C  0.84862571  0.76274365  0.30182788     1.11300
O198        O  0.65830054  0.77861202  0.29302273    -0.96900
Zr199      Zr  0.71176384  0.75114694  0.28867579     1.88900
O200        O  0.78328800  0.69787313  0.31449113    -0.73600
O201        O  0.78403249  0.82932990  0.31453657    -0.52800
O202        O  0.70677342  0.78374314  0.33392415    -0.97500
O203        O  0.66962168  0.71377035  0.29927531    -0.54700
O204        O  0.73609315  0.72269351  0.33133237    -0.74100
C205        C  0.76131675  0.70444717  0.33511269     0.98300
O206        O  0.84963828  0.69408113  0.25280941    -0.62900
O207        O  0.72918755  0.68579426  0.15752470    -0.57700
O208        O  0.79153327  0.66314875  0.25429820    -0.94400
O209        O  0.75262263  0.65708676  0.21742007    -0.92800
O210        O  0.79963889  0.73116865  0.13740365    -0.93200
O211        O  0.85055393  0.73285551  0.17724284    -0.92000
C212        C  0.77543507  0.64675175  0.23555707     1.17100
H213        H  0.73285178  0.75086465  0.16071095     0.33000
H214        H  0.83561496  0.76457235  0.23891892     0.43900
H215        H  0.73201539  0.68979486  0.27260006     0.37400
H216        H  0.71331994  0.81274510  0.27196228     0.33900
H217        H  0.84888337  0.79411503  0.15596679     0.25700
H218        H  0.79885809  0.84679785  0.31229468     0.31600
H219        H  0.72965839  0.79021055  0.33771244     0.37500
H220        H  0.79924185  0.70955247  0.14405902     0.32000
H221        H  0.75231266  0.67756550  0.15608263     0.30900
H222        H  0.68113345  0.65670345  0.20732668     0.32600
H223        H  0.68133167  0.69689259  0.31030444     0.31500
H224        H  0.84654489  0.71177433  0.18429110     0.35500
H225        H  0.84676770  0.68128936  0.23432916     0.28300
H226        H  0.66048617  0.83709403  0.19349045     0.32500
H227        H  0.64684527  0.76952076  0.31089413     0.35300
H228        H  0.71552398  0.66741971  0.15804786     0.27900
H229        H  0.86317959  0.71107040  0.24530040     0.40800
H230        H  0.84561304  0.82734265  0.24079649     0.30900
H231        H  0.83556883  0.81446013  0.18330732     0.38500
H232        H  0.66454442  0.70508767  0.27892285     0.30300
H233        H  0.76153746  0.83881193  0.31708185     0.30400
H234        H  0.65362568  0.82604144  0.22746572     0.30700
C235        C  0.76525322  0.84839635  0.95698778     0.86100
C236        C  0.79480743  0.86929036  0.96114295    -0.54100
C237        C  0.79146772  0.88878192  0.98532621     0.09100
C238        C  0.76000111  0.88486762  0.00444229     0.20000
C239        C  0.76181490  0.83163415  0.98803213    -0.54800
C240        C  0.75928102  0.85090923  0.01278191     0.09200
C241        C  0.73523065  0.87128047  0.95595498    -0.54400
C242        C  0.73236676  0.88964841  0.98117319     0.09700
H243        H  0.81575750  0.87072569  0.94557139     0.14200
H244        H  0.75763076  0.90046202  0.02456118     0.00000
H245        H  0.76166262  0.80692842  0.99021942     0.14600
H246        H  0.71720248  0.87224517  0.93759672     0.14300
C247        C  0.49048807  0.71935679  0.08111204     0.86100
C248        C  0.46320933  0.72783613  0.10455988    -0.54100
C249        C  0.46903748  0.75319822  0.12140299     0.09100
C250        C  0.50181325  0.76839369  0.11314603     0.20000
C251        C  0.49305942  0.74882780  0.06160128    -0.54800
C252        C  0.49880428  0.77467991  0.07834304     0.09200
C253        C  0.52285062  0.71756181  0.09926100    -0.54400
C254        C  0.52901403  0.74304518  0.11586775     0.09700
H255        H  0.44011204  0.71581519  0.10642132     0.14200
H256        H  0.50713116  0.78839060  0.12758929     0.00000
H257        H  0.48887126  0.75009711  0.03714242     0.14600
H258        H  0.53987805  0.69779259  0.09855498     0.14300
C259        C  0.34334342  0.96362197  0.76407867     0.86100
C260        C  0.36241726  0.96630900  0.79411086    -0.54100
C261        C  0.38264278  0.99067248  0.79624730     0.09100
C262        C  0.38106002  0.01143124  0.76690372     0.20000
C263        C  0.32426809  0.99438548  0.76141534    -0.54800
C264        C  0.34352543  0.01920138  0.76297264     0.09200
C265        C  0.36981259  0.96501228  0.73833026    -0.54400
C266        C  0.38981212  0.98981561  0.73920695     0.09700
H267        H  0.35956390  0.95001607  0.81273049     0.14200
H268        H  0.39666857  0.03179398  0.76800901     0.00000
H269        H  0.29776862  0.99747995  0.75868619     0.14600
H270        H  0.37126987  0.94830365  0.71989499     0.14300
C271        C  0.73406463  0.33968684  0.96756403     0.86100
C272        C  0.76676230  0.35642333  0.96913235    -0.54100
C273        C  0.77199091  0.37096528  0.99630481     0.09100
C274        C  0.74427549  0.36625675  0.02030887     0.20000
C275        C  0.73435955  0.31771794  0.99511343    -0.54800
C276        C  0.74009304  0.33124529  0.02282865     0.09200
C277        C  0.70718344  0.36374126  0.97681635    -0.54400
C278        C  0.71277734  0.37762353  0.00406588     0.09700
H279        H  0.78337379  0.35829187  0.94943912     0.14200
H280        H  0.74852738  0.37830257  0.04217660     0.00000
H281        H  0.72885849  0.29370257  0.99304473     0.14600
H282        H  0.68432624  0.36843874  0.96456194     0.14300
C283        C  0.25489396  0.64874444  0.01965839     0.86100
C284        C  0.28482691  0.62768164  0.01064451    -0.54100
C285        C  0.27936985  0.60952943  0.98589720     0.09100
C286        C  0.24473791  0.61336273  0.97241288     0.20000
C287        C  0.24694160  0.66606414  0.98949688    -0.54800
C288        C  0.24160143  0.64744940  0.96472042     0.09200
C289        C  0.22614186  0.62683281  0.02402219    -0.54400
C290        C  0.22067831  0.60865227  0.99926669     0.09700
H291        H  0.30916488  0.62784142  0.02077738     0.14200
H292        H  0.24018118  0.59788556  0.95288205     0.00000
H293        H  0.24631862  0.69083047  0.98785505     0.14600
H294        H  0.21033878  0.62692646  0.04439796     0.14300
C295        C  0.14991491  0.52232719  0.75119617     0.86100
C296        C  0.12664187  0.51900255  0.77915179    -0.54100
C297        C  0.10919916  0.49265398  0.78019650     0.09100
C298        C  0.11760039  0.47112205  0.75242757     0.20000
C299        C  0.17246774  0.49333585  0.75238961    -0.54800
C300        C  0.15592437  0.46679285  0.75285730     0.09200
C301        C  0.12795121  0.51743595  0.72311358    -0.54400
C302        C  0.11101264  0.49095465  0.72335307     0.09700
H303        H  0.12430775  0.53634440  0.79696805     0.14200
H304        H  0.10413163  0.44942631  0.75250608     0.00000
H305        H  0.19926678  0.49269417  0.75272236     0.14600
H306        H  0.12637579  0.53354335  0.70412309     0.14300
C307        C  0.72992311  0.16581816  0.45990465     0.86100
C308        C  0.69842677  0.14761299  0.46763333    -0.54100
C309        C  0.70246577  0.12720297  0.49141137     0.09100
C310        C  0.73777444  0.12589674  0.50428961     0.20000
C311        C  0.73979889  0.17960505  0.49076450    -0.54800
C312        C  0.74355421  0.15883566  0.51385161     0.09200
C313        C  0.75639871  0.14041195  0.45322649    -0.54400
C314        C  0.76107443  0.12004238  0.47655198     0.09700
H315        H  0.67506839  0.14974655  0.45580911     0.14200
H316        H  0.74154714  0.10938102  0.52343471     0.00000
H317        H  0.74134447  0.20405669  0.49449857     0.14600
H318        H  0.77230790  0.14011635  0.43290974     0.14300
C319        C  0.00657531  0.77372419  0.40773256     0.86100
C320        C  0.97320800  0.77338788  0.39122315    -0.54100
C321        C  0.96961674  0.74980331  0.37160545     0.09100
C322        C  0.99970880  0.72684830  0.37098988     0.20000
C323        C  0.00813056  0.74233917  0.42429277    -0.54800
C324        C  0.00523872  0.71763966  0.40502085     0.09200
C325        C  0.03296384  0.77071807  0.38218829    -0.54400
C326        C  0.02974781  0.74626032  0.36325026     0.09700
H327        H  0.95398258  0.79121961  0.39403949     0.14200
H328        H  0.99699498  0.70741853  0.35492869     0.00000
H329        H  0.00953693  0.73927320  0.44883256     0.14600
H330        H  0.05306222  0.78649992  0.37961796     0.14300
Zr331      Zr  0.29346413  0.72603078  0.20917844     2.17500
O332        O  0.34649893  0.69998981  0.19694487    -0.51700
O333        O  0.28147752  0.71034430  0.15636245    -0.74900
O334        O  0.29758452  0.67240461  0.22648864    -0.81700
O335        O  0.33371951  0.80409302  0.19386277    -0.83400
O336        O  0.25048674  0.66060560  0.25233503    -0.79000
O337        O  0.34283162  0.75240756  0.19471101    -0.90700
O338        O  0.23266582  0.73257995  0.14208583    -0.76600
O339        O  0.23585116  0.71695920  0.20585881    -0.86100
O340        O  0.26917959  0.77123912  0.18644193    -0.85800
O341        O  0.27703271  0.71891242  0.26196732    -0.72600
O342        O  0.30603617  0.76894112  0.24126393    -0.84700
Zr343      Zr  0.20513451  0.79656001  0.26856269     2.26400
Zr344      Zr  0.21880519  0.70971050  0.25824326     2.06300
Zr345      Zr  0.28015299  0.81398059  0.21904072     2.10000
Zr346      Zr  0.21150558  0.76270608  0.18435329     1.78800
O347        O  0.31982827  0.84699860  0.24302191    -0.93500
O348        O  0.16487441  0.73143666  0.17118750    -0.41300
O349        O  0.22197631  0.80566687  0.21640778    -0.78000
O350        O  0.19293161  0.75442599  0.23553547    -0.96600
O351        O  0.23033175  0.75199837  0.29141217    -0.90000
O352        O  0.26260206  0.80672783  0.27119037    -0.92800
C353        C  0.25841658  0.71556550  0.13663378     1.01000
C354        C  0.35163059  0.77969819  0.18903771     1.13900
C355        C  0.27949045  0.65344486  0.24119883     1.04700
O356        O  0.18160114  0.67867696  0.22874544    -0.94900
O357        O  0.16449753  0.71958503  0.28249698    -0.90700
O358        O  0.15595295  0.77118145  0.28613849    -0.83800
C359        C  0.14656277  0.74360265  0.28926593     1.11300
O360        O  0.34384262  0.74103894  0.30093882    -0.96900
Zr361      Zr  0.28790271  0.76216175  0.29321903     1.88900
O362        O  0.21167690  0.80742141  0.32271001    -0.73600
O363        O  0.21257806  0.67938128  0.30482867    -0.52800
O364        O  0.29387938  0.72358955  0.33330421    -0.97500
O365        O  0.32811229  0.79984463  0.30775579    -0.54700
O366        O  0.26015037  0.78443755  0.33778509    -0.74100
C367        C  0.23318130  0.79995857  0.34307124     0.98300
O368        O  0.15157595  0.82403712  0.26750202    -0.62900
O369        O  0.27909445  0.84217944  0.17077349    -0.57700
O370        O  0.20826798  0.85200113  0.26268226    -0.94400
O371        O  0.24954550  0.86299014  0.22889035    -0.92800
O372        O  0.21590997  0.79549116  0.13934467    -0.93200
O373        O  0.16049710  0.79323851  0.17742151    -0.92000
C374        C  0.22482874  0.87094222  0.24655142     1.17100
H375        H  0.27822823  0.77445736  0.16607091     0.33000
H376        H  0.16941938  0.75199789  0.23383885     0.43900
H377        H  0.26617757  0.82470060  0.28343920     0.37400
H378        H  0.28884114  0.70226930  0.27191880     0.33900
H379        H  0.16082413  0.73581056  0.14918582     0.25700
H380        H  0.20359684  0.65982517  0.29781201     0.31600
H381        H  0.27218574  0.71367258  0.33402287     0.37500
H382        H  0.20278702  0.78543880  0.12336460     0.32000
H383        H  0.25522396  0.84604176  0.16661893     0.30900
H384        H  0.32236681  0.86405168  0.22830766     0.32600
H385        H  0.31498428  0.81871711  0.31280902     0.31500
H386        H  0.14946044  0.79344261  0.19786399     0.35500
H387        H  0.15210302  0.83984360  0.28375195     0.28300
H388        H  0.34116625  0.68087263  0.18619088     0.32500
H389        H  0.35156635  0.73467064  0.28016085     0.35300
H390        H  0.28754298  0.86251367  0.17591043     0.27900
H391        H  0.15099819  0.83540264  0.24780890     0.40800
H392        H  0.17075761  0.66564730  0.24423456     0.30900
H393        H  0.17403769  0.71016999  0.17143399     0.38500
H394        H  0.33997115  0.80466764  0.28839733     0.30300
H395        H  0.23551256  0.67403162  0.31129414     0.30400
H396        H  0.35589765  0.69333273  0.21689825     0.30700
C397        C  0.23603505  0.84901599  0.46640046     0.86100
C398        C  0.26409636  0.87145977  0.46386090    -0.54100
C399        C  0.27157047  0.88593031  0.49052143     0.09100
C400        C  0.24844408  0.87739954  0.51775674     0.20000
C401        C  0.24729285  0.82768920  0.49290779    -0.54800
C402        C  0.25226440  0.84227217  0.52024043     0.09200
C403        C  0.20632398  0.86754073  0.47972121    -0.54400
C404        C  0.21276676  0.88272500  0.50618084     0.09700
H405        H  0.27798534  0.87457950  0.44261095     0.14200
H406        H  0.25306660  0.88959058  0.53950493     0.00000
H407        H  0.25157639  0.80335833  0.49080594     0.14600
H408        H  0.18219115  0.86894357  0.46884736     0.14300
C409        C  0.88404450  0.50764966  0.27924093     0.86100
C410        C  0.86792728  0.47666972  0.27768805    -0.54100
C411        C  0.84799005  0.47275236  0.25325223     0.09100
C412        C  0.84576535  0.50088704  0.23155977     0.20000
C413        C  0.90236357  0.51044134  0.24765604    -0.54800
C414        C  0.88223015  0.50699611  0.22241414     0.09200
C415        C  0.85556089  0.53160064  0.27685115    -0.54400
C416        C  0.83545161  0.52828805  0.25224160     0.09700
H417        H  0.87245211  0.45873740  0.29459568     0.14200
H418        H  0.82867411  0.49838403  0.21202350     0.00000
H419        H  0.92838520  0.51537879  0.24512295     0.14600
H420        H  0.85307793  0.55112841  0.29222656     0.14300
Zr421      Zr  0.78182674  0.28772915  0.20631841     2.17500
O422        O  0.78844522  0.32803873  0.16805417    -0.51700
O423        O  0.83803475  0.27542893  0.19030686    -0.74900
O424        O  0.79905852  0.33618285  0.22734653    -0.81700
O425        O  0.73795518  0.23867175  0.14448055    -0.83400
O426        O  0.78741315  0.33828033  0.27856938    -0.79000
O427        O  0.76219276  0.28373887  0.15467304    -0.90700
O428        O  0.85761922  0.23368830  0.21598952    -0.76600
O429        O  0.80553639  0.27218392  0.25376639    -0.86100
O430        O  0.78837993  0.23354638  0.20156066    -0.85800
O431        O  0.74234583  0.30544691  0.24437405    -0.72600
O432        O  0.72817016  0.26821405  0.19721717    -0.84700
Zr433      Zr  0.71788058  0.21566917  0.27982936     2.26400
Zr434      Zr  0.76528681  0.28815281  0.29242760     2.06300
Zr435      Zr  0.73416328  0.21354806  0.19446641     2.10000
Zr436      Zr  0.81180956  0.21798997  0.24905238     1.78800
O437        O  0.68347036  0.20466943  0.16623260    -0.93500
O438        O  0.85600449  0.22677301  0.28543575    -0.41300
O439        O  0.75772742  0.19757574  0.24225229    -0.78000
O440        O  0.77274812  0.23357913  0.28852960    -0.96600
O441        O  0.71114733  0.26969803  0.28330547    -0.90000
O442        O  0.69441241  0.23093334  0.23234798    -0.92800
C443        C  0.86050927  0.25493331  0.19585056     1.01000
C444        C  0.74806351  0.26515641  0.13672531     1.13900
C445        C  0.79810908  0.35009029  0.25329000     1.04700
O446        O  0.81397076  0.29530789  0.32390659    -0.94900
O447        O  0.75347648  0.26417005  0.34299747    -0.90700
O448        O  0.71999015  0.22434938  0.33395398    -0.83800
C449        C  0.73571579  0.24164965  0.35191076     1.11300
O450        O  0.68153442  0.32727582  0.19866042    -0.96900
Zr451      Zr  0.68915490  0.28525308  0.23497080     1.88900
O452        O  0.66006992  0.22813572  0.29277888    -0.73600
O453        O  0.73114147  0.32617738  0.32018984    -0.52800
O454        O  0.66726553  0.33271321  0.25763648    -0.97500
O455        O  0.64550362  0.27178218  0.19963192    -0.54700
O456        O  0.64465385  0.27241853  0.26877140    -0.74100
C457        C  0.63945219  0.25045074  0.28730068     0.98300
O458        O  0.72558921  0.17215445  0.31448070    -0.62900
O459        O  0.76693245  0.17880888  0.16161007    -0.57700
O460        O  0.69584775  0.16909136  0.25958069    -0.94400
O461        O  0.71448970  0.16295408  0.21042203    -0.92800
O462        O  0.82786359  0.17241253  0.21967771    -0.93200
O463        O  0.82396519  0.17309038  0.28059338    -0.92000
C464        C  0.69968493  0.15339855  0.23487063     1.17100
H465        H  0.80232772  0.22764239  0.18426536     0.33000
H466        H  0.78120525  0.22525448  0.30755678     0.43900
H467        H  0.67308536  0.22191704  0.22960337     0.37400
H468        H  0.73927651  0.32740430  0.24383984     0.33900
H469        H  0.87494723  0.21367596  0.27806562     0.25700
H470        H  0.71873028  0.33733126  0.30393066     0.31600
H471        H  0.64354261  0.33374920  0.25193238     0.37500
H472        H  0.85238766  0.17250402  0.21834647     0.32000
H473        H  0.77097745  0.16029086  0.17428986     0.30900
H474        H  0.66718443  0.19764550  0.18165521     0.32600
H475        H  0.65652726  0.27079277  0.17918812     0.31500
H476        H  0.80316609  0.16980687  0.29225422     0.35500
H477        H  0.70343552  0.16336499  0.31725172     0.28300
H478        H  0.81146282  0.33496241  0.16999494     0.32500
H479        H  0.70375237  0.32980054  0.18926437     0.35300
H480        H  0.75126818  0.17240185  0.14566721     0.27900
H481        H  0.73879029  0.15663042  0.30264360     0.40800
H482        H  0.80517668  0.30506974  0.34297246     0.30900
H483        H  0.86285268  0.24789416  0.28121006     0.38500
H484        H  0.63046646  0.29010188  0.19869229     0.30300
H485        H  0.71407705  0.31435026  0.33103702     0.30400
H486        H  0.77402679  0.34553994  0.17493335     0.30700
C487        C  0.60416762  0.00769911  0.29400882     0.86100
C488        C  0.62670625  0.03553859  0.29127945    -0.54100
C489        C  0.64672001  0.03572667  0.26551240     0.09100
C490        C  0.64417102  0.00671883  0.24574529     0.20000
C491        C  0.58640316  0.00685585  0.26280547    -0.54800
C492        C  0.60712824  0.00678015  0.23758823     0.09200
C493        C  0.62934692  0.98011018  0.29285236    -0.54400
C494        C  0.65000342  0.97925726  0.26773425     0.09700
H495        H  0.62544457  0.05466534  0.30712444     0.14200
H496        H  0.66088092  0.00634550  0.22528903     0.00000
H497        H  0.55957436  0.00693306  0.26092618     0.14600
H498        H  0.63091776  0.96214284  0.30994297     0.14300
C499        C  0.49322853  0.21466674  0.93000587     0.86100
C500        C  0.52177418  0.20481297  0.90794208    -0.54100
C501        C  0.52693254  0.22434101  0.88402471     0.09100
C502        C  0.50118535  0.25128453  0.88294596     0.20000
C503        C  0.50053443  0.24768442  0.93882993    -0.54800
C504        C  0.50449393  0.26694561  0.91432291     0.09200
C505        C  0.46310214  0.21729147  0.90854490    -0.54400
C506        C  0.46670517  0.23701075  0.88454589     0.09700
H507        H  0.53726200  0.18435210  0.91133736     0.14200
H508        H  0.50473641  0.26681221  0.86310092     0.00000
H509        H  0.50186339  0.25526640  0.96253977     0.14600
H510        H  0.44063465  0.20470291  0.91127050     0.14300
Zr511      Zr  0.20857661  0.27835936  0.72467626     2.17500
O512        O  0.15445092  0.30493916  0.72783173    -0.51700
O513        O  0.21847328  0.29123064  0.67211669    -0.74900
O514        O  0.21221421  0.33289427  0.73193274    -0.81700
O515        O  0.16374305  0.20523129  0.70753088    -0.83400
O516        O  0.24982337  0.34140936  0.76929692    -0.79000
O517        O  0.16141430  0.25694921  0.70124484    -0.90700
O518        O  0.26967808  0.27278820  0.65895729    -0.76600
O519        O  0.26649523  0.28700259  0.72334829    -0.86100
O520        O  0.23260563  0.23361518  0.70119191    -0.85800
O521        O  0.22252813  0.28582047  0.77710906    -0.72600
O522        O  0.19116672  0.23636095  0.75510957    -0.84700
Zr523      Zr  0.29021221  0.20753819  0.78549133     2.26400
Zr524      Zr  0.28149805  0.29315152  0.77611434     2.06300
Zr525      Zr  0.21714930  0.19163550  0.73286887     2.10000
Zr526      Zr  0.29052656  0.24170579  0.70100719     1.78800
O527        O  0.17752547  0.15797836  0.75685271    -0.93500
O528        O  0.33747609  0.27284911  0.68758655    -0.41300
O529        O  0.27566917  0.19967944  0.73282296    -0.78000
O530        O  0.30748653  0.24852736  0.75304040    -0.96600
O531        O  0.26480034  0.25180631  0.80806993    -0.90000
O532        O  0.23224442  0.19829023  0.78551870    -0.92800
C533        C  0.24252780  0.28766161  0.65308821     1.01000
C534        C  0.14954056  0.23047067  0.69816032     1.13900
C535        C  0.22636757  0.35020193  0.75117435     1.04700
O536        O  0.32096958  0.32406949  0.74830591    -0.94900
O537        O  0.33265001  0.28166703  0.80526360    -0.90700
O538        O  0.33930585  0.22988016  0.80635312    -0.83800
C539        C  0.34899609  0.25680356  0.81218385     1.11300
O540        O  0.14881512  0.26080270  0.81046912    -0.96900
Zr541      Zr  0.20673673  0.24325908  0.80706552     1.88900
O542        O  0.27951448  0.19932995  0.83982334    -0.73600
O543        O  0.28473711  0.32389280  0.82254921    -0.52800
O544        O  0.19343375  0.28513380  0.84236644    -0.97500
O545        O  0.17260100  0.20230180  0.82661283    -0.54700
O546        O  0.23428926  0.22848591  0.85301566    -0.74100
C547        C  0.25911432  0.21102469  0.85969572     0.98300
O548        O  0.33857147  0.17239136  0.78458137    -0.62900
O549        O  0.21879075  0.16139957  0.68582904    -0.57700
O550        O  0.28727860  0.15333551  0.77918797    -0.94400
O551        O  0.25067028  0.14431699  0.74099729    -0.92800
O552        O  0.28816943  0.20819586  0.65647949    -0.93200
O553        O  0.34201025  0.21158747  0.69436345    -0.92000
C554        C  0.27372089  0.13586683  0.75982803     1.17100
H555        H  0.22453887  0.23095381  0.68056574     0.33000
H556        H  0.33132650  0.25000144  0.75270896     0.43900
H557        H  0.22762198  0.18031682  0.79745846     0.37400
H558        H  0.21029365  0.30328188  0.78547697     0.33900
H559        H  0.34152808  0.26887218  0.66543732     0.25700
H560        H  0.29128005  0.34435036  0.81543549     0.31600
H561        H  0.21516249  0.29367423  0.84731157     0.37500
H562        H  0.27825073  0.18933564  0.66443611     0.32000
H563        H  0.19867913  0.14906278  0.68690204     0.30900
H564        H  0.17341376  0.14233106  0.74104872     0.32600
H565        H  0.15929694  0.21167572  0.84360971     0.31500
H566        H  0.33766447  0.19168814  0.70420773     0.35500
H567        H  0.35490607  0.18197427  0.77075620     0.28300
H568        H  0.15490443  0.32164380  0.71250584     0.32500
H569        H  0.13907086  0.25510146  0.79057195     0.35300
H570        H  0.21432683  0.17625064  0.66908685     0.27900
H571        H  0.34842970  0.17303100  0.80530473     0.40800
H572        H  0.34292617  0.31418781  0.75239053     0.30900
H573        H  0.32850894  0.29417322  0.68838857     0.38500
H574        H  0.18810086  0.18780588  0.83707991     0.30300
H575        H  0.26146595  0.32684349  0.82965458     0.30400
H576        H  0.15377323  0.31528076  0.74808054     0.30700
C577        C  0.98256676  0.21944993  0.60514591     0.86100
C578        C  0.95694436  0.22835066  0.63000706    -0.54100
C579        C  0.96416663  0.25371767  0.64638231     0.09100
C580        C  0.99643029  0.26852659  0.63636632     0.20000
C581        C  0.98439660  0.24896512  0.58531074    -0.54800
C582        C  0.99086618  0.27482939  0.60187219     0.09200
C583        C  0.01586799  0.21731502  0.62146141    -0.54400
C584        C  0.02329995  0.24253336  0.63774927     0.09700
H585        H  0.93376648  0.21667874  0.63309993     0.14200
H586        H  0.00204314  0.28899440  0.65018719     0.00000
H587        H  0.97967651  0.25016349  0.56092504     0.14600
H588        H  0.03237764  0.19718248  0.62036834     0.14300
C589        C  0.00741360  0.22627238  0.07203507     0.86100
C590        C  0.97498408  0.22650988  0.09108524    -0.54100
C591        C  0.97114161  0.25101253  0.11032631     0.09100
C592        C  0.00003470  0.27300825  0.10907545     0.20000
C593        C  0.00776839  0.25691838  0.05579902    -0.54800
C594        C  0.00419573  0.28127356  0.07482328     0.09200
C595        C  0.03436456  0.22784385  0.09693788    -0.54400
C596        C  0.03050773  0.25236602  0.11624693     0.09700
H597        H  0.95731523  0.20833532  0.09049878     0.14200
H598        H  0.99650496  0.29298163  0.12463635     0.00000
H599        H  0.01006172  0.25922877  0.03098400     0.14600
H600        H  0.05385932  0.21054657  0.10034926     0.14300
Zr601      Zr  0.03724481  0.04698377  0.04077652     2.17500
O602        O  0.02525480  0.08458428  0.08110615    -0.51700
O603        O  0.09474203  0.05875171  0.03248874    -0.74900
O604        O  0.05971818  0.02970031  0.08967808    -0.81700
O605        O  0.00024432  0.10591361  0.98365464    -0.83400
O606        O  0.05260685  0.97857463  0.09314053    -0.79000
O607        O  0.03296955  0.09949781  0.02568477    -0.90700
O608        O  0.11387702  0.03116837  0.99167000    -0.76600
O609        O  0.06303618  0.99904913  0.02823526    -0.86100
O610        O  0.04306121  0.04789286  0.98624495    -0.85800
O611        O  0.99999822  0.01000290  0.06025698    -0.72600
O612        O  0.98289370  0.05607159  0.02025164    -0.84700
Zr613      Zr  0.97658708  0.97122345  0.97167306     2.26400
Zr614      Zr  0.02511183  0.96150103  0.04573821     2.06300
Zr615      Zr  0.98860007  0.05509897  0.96514097     2.10000
Zr616      Zr  0.06883465  0.00005839  0.97384314     1.78800
O617        O  0.93707404  0.08535629  0.96057346    -0.93500
O618        O  0.11145862  0.96165378  0.98694130    -0.41300
O619        O  0.01463286  0.00712940  0.95157403    -0.78000
O620        O  0.03160425  0.96186674  0.99082137    -0.96600
O621        O  0.97053333  0.97027525  0.02607779    -0.90000
O622        O  0.95095691  0.01898021  0.98455251    -0.92800
C623        C  0.11756497  0.05097931  0.01301681     1.01000
C624        C  0.01782206  0.11599676  0.00564215     1.13900
C625        C  0.06240540  0.00418607  0.10418368     1.04700
O626        O  0.07419921  0.92813700  0.05132816    -0.94900
O627        O  0.01056083  0.91096461  0.02432531    -0.90700
O628        O  0.97155453  0.91954319  0.98770751    -0.83800
C629        C  0.98971993  0.90176757  0.00411757     1.11300
O630        O  0.94005300  0.05349613  0.08289326    -0.96900
Zr631      Zr  0.94604648  0.01877181  0.03919644     1.88900
O632        O  0.91861329  0.96281831  0.97982778    -0.73600
O633        O  0.99698996  0.93725497  0.08862907    -0.52800
O634        O  0.92371081  0.99378357  0.08462078    -0.97500
O635        O  0.90175314  0.05640843  0.02836393    -0.54700
O636        O  0.90177600  0.98670154  0.02392275    -0.74100
C637        C  0.89726889  0.96905448  0.00106074     0.98300
O638        O  0.98897050  0.93477273  0.93036378    -0.62900
O639        O  0.01554138  0.08177108  0.92303083    -0.57700
O640        O  0.95097645  0.98730482  0.92429540    -0.94400
O641        O  0.96229933  0.03736979  0.91740676    -0.92800
O642        O  0.09120460  0.02647834  0.92926179    -0.93200
O643        O  0.08084037  0.96631716  0.93039449    -0.92000
C644        C  0.94981055  0.01204247  0.90858112     1.17100
H645        H  0.05691353  0.06432396  0.97975549     0.33000
H646        H  0.04023943  0.94227118  0.98365526     0.43900
H647        H  0.92956876  0.02176927  0.97493592     0.37400
H648        H  0.99801441  0.01151008  0.08234655     0.33900
H649        H  0.13151360  0.96800307  0.97560434     0.25700
H650        H  0.97615253  0.92989599  0.07985844     0.31600
H651        H  0.89970971  0.99939040  0.08474276     0.37500
H652        H  0.09109972  0.04834158  0.93508902     0.32000
H653        H  0.99990920  0.09889127  0.91786602     0.30900
H654        H  0.94010471  0.09781529  0.94181294     0.32600
H655        H  0.89092010  0.04898698  0.00960862     0.31500
H656        H  0.06007465  0.96670551  0.91844239     0.35500
H657        H  0.99800666  0.94709146  0.91331456     0.28300
H658        H  0.04714485  0.09072400  0.08858467     0.32500
H659        H  0.91597974  0.05507909  0.08761304     0.35300
H660        H  0.03467891  0.09171690  0.93238790     0.27900
H661        H  0.00835162  0.92234695  0.93753777     0.40800
H662        H  0.06692225  0.91130235  0.06475209     0.30900
H663        H  0.11649018  0.96551091  0.00878985     0.38500
H664        H  0.91337949  0.07486089  0.02161714     0.30300
H665        H  0.01049335  0.91842597  0.09276777     0.30400
H666        H  0.01535634  0.07311040  0.09834535     0.30700
Zr667      Zr  0.20738639  0.22571355  0.22053526     2.17500
O668        O  0.20417904  0.18394685  0.18348247    -0.51700
O669        O  0.15005188  0.23712742  0.20710494    -0.74900
O670        O  0.19124034  0.17676748  0.24237185    -0.81700
O671        O  0.25558946  0.26906785  0.15789126    -0.83400
O672        O  0.19554103  0.17939971  0.29434846    -0.79000
O673        O  0.22208681  0.22907421  0.16709517    -0.90700
O674        O  0.13418549  0.28382853  0.22562475    -0.76600
O675        O  0.18181800  0.24456427  0.26649131    -0.86100
O676        O  0.20269844  0.27979989  0.21324148    -0.85800
O677        O  0.24504988  0.20975388  0.26021787    -0.72600
O678        O  0.26218910  0.24386611  0.21135519    -0.84700
Zr679      Zr  0.27081696  0.30073518  0.29160312     2.26400
Zr680      Zr  0.21960686  0.22968944  0.30667027     2.06300
Zr681      Zr  0.25756335  0.29842476  0.20582766     2.10000
Zr682      Zr  0.17807412  0.29868648  0.25960382     1.78800
O683        O  0.30563750  0.30782181  0.17326922    -0.93500
O684        O  0.13089828  0.29130539  0.29398883    -0.41300
O685        O  0.23294032  0.31740313  0.25244438    -0.78000
O686        O  0.21487369  0.28440298  0.30032332    -0.96600
O687        O  0.27508152  0.24671066  0.29795422    -0.90000
O688        O  0.29561211  0.28270136  0.24508366    -0.92800
C689        C  0.12941044  0.25993892  0.20949879     1.01000
C690        C  0.24039379  0.24502299  0.14961200     1.13900
C691        C  0.18836436  0.16514164  0.26932229     1.04700
O692        O  0.16771583  0.22611379  0.33537003    -0.94900
O693        O  0.22824302  0.25615698  0.35652427    -0.90700
O694        O  0.26220210  0.29528123  0.34575956    -0.83800
C695        C  0.24546141  0.27930041  0.36445339     1.11300
O696        O  0.30647063  0.18491977  0.21642943    -0.96900
Zr697      Zr  0.29924381  0.22854962  0.25096708     1.88900
O698        O  0.32772823  0.28774690  0.30722335    -0.73600
O699        O  0.24917106  0.19239577  0.33870508    -0.52800
O700        O  0.31729353  0.18285967  0.27898775    -0.97500
O701        O  0.34625416  0.23662408  0.21644399    -0.54700
O702        O  0.34306006  0.24306232  0.28425042    -0.74100
C703        C  0.34841394  0.26521117  0.30247450     0.98300
O704        O  0.27009961  0.34895461  0.31991168    -0.62900
O705        O  0.22216955  0.33275509  0.17544726    -0.57700
O706        O  0.29105781  0.34818478  0.27086712    -0.94400
O707        O  0.28075684  0.34849785  0.21978667    -0.92800
O708        O  0.16320526  0.34440277  0.23015132    -0.93200
O709        O  0.16535207  0.34276457  0.29229108    -0.92000
C710        C  0.29124224  0.36135819  0.24450661     1.17100
H711        H  0.18944361  0.28488754  0.19549182     0.33000
H712        H  0.20544804  0.29401908  0.31852411     0.43900
H713        H  0.31717896  0.29131921  0.24177350     0.37400
H714        H  0.24780713  0.18775197  0.26111763     0.33900
H715        H  0.11221209  0.30284374  0.28432573     0.25700
H716        H  0.23254602  0.18625831  0.35424418     0.31600
H717        H  0.31608548  0.18887052  0.30091851     0.37500
H718        H  0.15873288  0.33703066  0.20914144     0.32000
H719        H  0.21847432  0.35104630  0.18856835     0.30900
H720        H  0.29832380  0.32469165  0.15948656     0.32600
H721        H  0.36048924  0.25110773  0.22716982     0.31500
H722        H  0.18488378  0.35575225  0.29009193     0.35500
H723        H  0.24886939  0.35006048  0.33158541     0.28300
H724        H  0.18161905  0.17583983  0.18553632     0.32500
H725        H  0.33028934  0.17876385  0.21739564     0.35300
H726        H  0.23661697  0.33968699  0.15846382     0.27900
H727        H  0.28761683  0.34672841  0.33563038     0.40800
H728        H  0.15106883  0.22097254  0.31979805     0.30900
H729        H  0.12537699  0.26958664  0.29146489     0.38500
H730        H  0.33667629  0.24866400  0.19923672     0.30300
H731        H  0.25265173  0.17414868  0.32547439     0.30400
H732        H  0.21947522  0.16739467  0.19082675     0.30700
C733        C  0.09766512  0.00253546  0.28824610     0.86100
C734        C  0.11428509  0.03333191  0.29162761    -0.54100
C735        C  0.13592546  0.04077670  0.26861528     0.09100
C736        C  0.14044787  0.01451611  0.24414305     0.20000
C737        C  0.08277982  0.00298333  0.25589221    -0.54800
C738        C  0.10490407  0.00869524  0.23265839     0.09200
C739        C  0.12739270  0.97946338  0.28569116    -0.54400
C740        C  0.14972515  0.98485185  0.26254812     0.09700
H741        H  0.10885009  0.04841680  0.31096707     0.14200
H742        H  0.15806067  0.01957119  0.22521905     0.00000
H743        H  0.05695142  0.99826212  0.25166629     0.14600
H744        H  0.13077100  0.95961864  0.30021497     0.14300
Zr745      Zr  0.94239973  0.02710517  0.54021064     2.17500
O746        O  0.88618475  0.02746759  0.56174373    -0.51700
O747        O  0.95219073  0.07949876  0.55614319    -0.74900
O748        O  0.94073771  0.01955755  0.59528065    -0.81700
O749        O  0.90274365  0.04264993  0.46103154    -0.83400
O750        O  0.98406669  0.98819897  0.60888217    -0.79000
O751        O  0.89655136  0.04962460  0.51256535    -0.90700
O752        O  0.99832503  0.09496955  0.53100614    -0.76600
O753        O  0.99966347  0.02946106  0.55190359    -0.86100
O754        O  0.96689727  0.04899154  0.49574994    -0.85800
O755        O  0.95948221  0.97500500  0.55032520    -0.72600
O756        O  0.93063591  0.99399283  0.49796011    -0.84700
Zr757      Zr  0.03217662  0.96592908  0.47548656     2.26400
Zr758      Zr  0.01759219  0.97744430  0.56157596     2.06300
Zr759      Zr  0.95671906  0.01562850  0.45349771     2.10000
Zr760      Zr  0.02412408  0.05071441  0.50685404     1.78800
O761        O  0.91886607  0.99067615  0.41909087    -0.93500
O762        O  0.06408582  0.06835749  0.54392262    -0.41300
O763        O  0.01478512  0.01758768  0.46434661    -0.78000
O764        O  0.04339325  0.99984574  0.51724167    -0.96600
O765        O  0.00715506  0.94350966  0.51954004    -0.90000
O766        O  0.97504081  0.96381123  0.46306813    -0.92800
C767        C  0.97321432  0.09973183  0.54874055     1.01000
C768        C  0.88685898  0.05317651  0.48485283     1.13900
C769        C  0.95727911  0.00417967  0.61531790     1.04700
O770        O  0.05376347  0.00018002  0.59901447    -0.94900
O771        O  0.07413705  0.95455193  0.55365864    -0.90700
O772        O  0.08168460  0.94936252  0.50196062    -0.83800
C773        C  0.09188948  0.94734648  0.52965811     1.11300
O774        O  0.89320659  0.93828893  0.52721982    -0.96900
Zr775      Zr  0.94968180  0.94243817  0.50751630     1.88900
O776        O  0.02277927  0.91334522  0.46071468    -0.73600
O777        O  0.01859218  0.92889536  0.58897238    -0.52800
O778        O  0.94744277  0.90466370  0.54854482    -0.97500
O779        O  0.91138211  0.92307467  0.46966978    -0.54700
O780        O  0.97615458  0.89741308  0.48472671    -0.74100
C781        C  0.00167297  0.89302629  0.46737308     0.98300
O782        O  0.08763058  0.95958593  0.45279826    -0.62900
O783        O  0.95849791  0.06296173  0.42401700    -0.57700
O784        O  0.03437169  0.97701590  0.42101274    -0.94400
O785        O  0.98974238  0.00604701  0.40620568    -0.92800
O786        O  0.02302913  0.08994522  0.46713332    -0.93200
O787        O  0.07897793  0.05661882  0.48415221    -0.92000
C788        C  0.01732533  0.99121957  0.40049137     1.17100
H789        H  0.95759701  0.06926158  0.49185428     0.33000
H790        H  0.06682560  0.00163260  0.52028750     0.43900
H791        H  0.97204314  0.95142037  0.44501517     0.37400
H792        H  0.94723675  0.96696772  0.56752669     0.33900
H793        H  0.06627825  0.09036749  0.53932763     0.25700
H794        H  0.02989365  0.93320535  0.60851232     0.31600
H795        H  0.93807744  0.88645693  0.53882511     0.37500
H796        H  0.02510122  0.07853405  0.44752651     0.32000
H797        H  0.94204754  0.06051055  0.40753924     0.30900
H798        H  0.90168424  0.98232486  0.43286700     0.32600
H799        H  0.90887178  0.90130718  0.47517798     0.31500
H800        H  0.08382397  0.03705592  0.47333393     0.35500
H801        H  0.08597065  0.94423299  0.43626324     0.28300
H802        H  0.88511378  0.04411825  0.57715596     0.32500
H803        H  0.88129033  0.95706723  0.52003490     0.35300
H804        H  0.94851883  0.07902804  0.43754846     0.27900
H805        H  0.09224237  0.97905644  0.44221250     0.40800
H806        H  0.06986436  0.01157199  0.58649601     0.30900
H807        H  0.05223445  0.06798583  0.56396460     0.38500
H808        H  0.92380958  0.92244109  0.44992942     0.30300
H809        H  0.99519501  0.92583757  0.59502907     0.30400
H810        H  0.88450514  0.00832306  0.57372800     0.30700
C811        C  0.26179169  0.16771569  0.98489407     0.86100
C812        C  0.23135693  0.14749098  0.98638363    -0.54100
C813        C  0.22697594  0.13263379  0.01367712     0.09100
C814        C  0.25361265  0.13969428  0.03741194     0.20000
C815        C  0.25802933  0.18936587  0.01202628    -0.54800
C816        C  0.25367544  0.17501376  0.03933653     0.09200
C817        C  0.29059657  0.14561841  0.99349726    -0.54400
C818        C  0.28590122  0.13032755  0.02043513     0.09700
H819        H  0.21539626  0.14415819  0.96678752     0.14200
H820        H  0.25065269  0.12794723  0.05981134     0.00000
H821        H  0.25869152  0.21408368  0.00989624     0.14600
H822        H  0.31106520  0.13901710  0.97839390     0.14300
Zr823      Zr  0.46017865  0.03877637  0.98404950     2.17500
O824        O  0.44349895  0.07866359  0.94746270    -0.51700
O825        O  0.40312031  0.04505735  0.00202952    -0.74900
O826        O  0.44219599  0.02016268  0.93360184    -0.81700
O827        O  0.50626666  0.10042259  0.03009635    -0.83400
O828        O  0.45451357  0.96942186  0.93137150    -0.79000
O829        O  0.47123004  0.09257475  0.99041232    -0.90700
O830        O  0.39359290  0.02027554  0.04695049    -0.76600
O831        O  0.44246611  0.99022367  0.00119002    -0.86100
O832        O  0.46096429  0.04112780  0.03895730    -0.85800
O833        O  0.50062672  0.00344241  0.96198539    -0.72600
O834        O  0.51606799  0.04914978  0.99846308    -0.84700
Zr835      Zr  0.53861823  0.96531553  0.04910159     2.26400
Zr836      Zr  0.48285749  0.95456571  0.97949943     2.06300
Zr837      Zr  0.51694643  0.05041194  0.05344186     2.10000
Zr838      Zr  0.44436722  0.99223330  0.05623492     1.78800
O839        O  0.56515158  0.08186752  0.05923391    -0.93500
O840        O  0.40203187  0.95388941  0.05310843    -0.41300
O841        O  0.49982680  0.00176291  0.07132156    -0.78000
O842        O  0.48240440  0.95543353  0.03497475    -0.96600
O843        O  0.53881080  0.96370953  0.99437606    -0.90000
O844        O  0.55681656  0.01398007  0.03285720    -0.92800
C845        C  0.38471961  0.03792132  0.02501236     1.01000
C846        C  0.48864984  0.10980075  0.00727988     1.13900
C847        C  0.44269840  0.99441088  0.91927705     1.04700
O848        O  0.43467962  0.92318776  0.97338551    -0.94900
O849        O  0.49671381  0.90366214  0.00019285    -0.90700
O850        O  0.52905107  0.91151031  0.04189291    -0.83800
C851        C  0.51285771  0.89436232  0.02398042     1.11300
O852        O  0.55852821  0.05136798  0.93788682    -0.96900
Zr853      Zr  0.55576504  0.01272761  0.97816950     1.88900
O854        O  0.59432349  0.95306142  0.03081033    -0.73600
O855        O  0.51517003  0.92669489  0.94033827    -0.52800
O856        O  0.56718377  0.98754071  0.92905008    -0.97500
O857        O  0.60135870  0.04740363  0.98419653    -0.54700
O858        O  0.60364100  0.97982792  0.98732449    -0.74100
C859        C  0.61234568  0.96004585  0.00761796     0.98300
O860        O  0.55042764  0.93377686  0.09431751    -0.62900
O861        O  0.48473300  0.07777985  0.09298613    -0.57700
O862        O  0.56024569  0.98503131  0.09691860    -0.94400
O863        O  0.54570116  0.03544957  0.10081145    -0.92800
O864        O  0.42870471  0.01792249  0.10414792    -0.93200
O865        O  0.44683014  0.95817130  0.10056606    -0.92000
C866        C  0.55943657  0.01063262  0.11136613     1.17100
H867        H  0.44628496  0.05734590  0.04660842     0.33000
H868        H  0.47474076  0.93657938  0.04352460     0.43900
H869        H  0.57874089  0.01764596  0.04037159     0.37400
H870        H  0.50141065  0.00473590  0.93985790     0.33900
H871        H  0.39169411  0.95722021  0.03278834     0.25700
H872        H  0.50219221  0.90842434  0.93595003     0.31600
H873        H  0.59168595  0.98612911  0.92725565     0.37500
H874        H  0.42247544  0.03918086  0.09824782     0.32000
H875        H  0.48114580  0.06236975  0.10925059     0.30900
H876        H  0.56127489  0.09290378  0.07886919     0.32600
H877        H  0.61596175  0.03788192  0.99991044     0.31500
H878        H  0.47043284  0.95754768  0.10665890     0.35500
H879        H  0.52910348  0.92463955  0.10012592     0.28300
H880        H  0.42071100  0.07414373  0.94096788     0.32500
H881        H  0.57920232  0.04648770  0.92614797     0.35300
H882        H  0.50045241  0.09204012  0.10208255     0.27900
H883        H  0.56486085  0.91637951  0.08735017     0.40800
H884        H  0.42501997  0.92173055  0.99432083     0.30900
H885        H  0.41439534  0.93405780  0.05110761     0.38500
H886        H  0.59114645  0.06559131  0.99453591     0.30300
H887        H  0.51319471  0.93937346  0.92155006     0.30400
H888        H  0.45768131  0.07541226  0.92894115     0.30700
Zr889      Zr  0.53192792  0.03891018  0.47985484     2.17500
O890        O  0.58747837  0.03532036  0.45686020    -0.51700
O891        O  0.52146464  0.09273666  0.46725864    -0.74900
O892        O  0.53246348  0.03053072  0.42446489    -0.81700
O893        O  0.57109536  0.05934120  0.55647256    -0.83400
O894        O  0.49567564  0.99375331  0.41417268    -0.79000
O895        O  0.57779844  0.06113684  0.50436837    -0.90700
O896        O  0.47412425  0.10873806  0.49150301    -0.76600
O897        O  0.47483646  0.04015781  0.46722072    -0.86100
O898        O  0.50538877  0.06304830  0.52308841    -0.85800
O899        O  0.51965623  0.98604064  0.47376040    -0.72600
O900        O  0.54577505  0.00893470  0.52459253    -0.84700
Zr901      Zr  0.44643514  0.98286108  0.54928849     2.26400
Zr902      Zr  0.46167479  0.98737087  0.46181015     2.06300
Zr903      Zr  0.51840153  0.03339294  0.56774326     2.10000
Zr904      Zr  0.44806936  0.06395272  0.51063178     1.78800
O905        O  0.56026829  0.01356102  0.60316114    -0.93500
O906        O  0.41428448  0.07983461  0.46692918    -0.41300
O907        O  0.46044771  0.03498513  0.55603621    -0.78000
O908        O  0.43276454  0.01219993  0.50420613    -0.96600
O909        O  0.47374337  0.95779584  0.50694410    -0.90000
O910        O  0.50376293  0.98122070  0.56190778    -0.92800
C911        C  0.50029384  0.11377326  0.47572638     1.01000
C912        C  0.58710495  0.06652794  0.53169760     1.13900
C913        C  0.51947846  0.01138381  0.40621534     1.04700
O914        O  0.42233387  0.00986162  0.42551453    -0.94900
O915        O  0.41090467  0.95900734  0.47249296    -0.90700
O916        O  0.40222670  0.95735676  0.52438213    -0.83800
C917        C  0.39418293  0.95144540  0.49669018     1.11300
O918        O  0.58975029  0.95075832  0.50688974    -0.96900
Zr919      Zr  0.53083939  0.95679012  0.51924548     1.88900
O920        O  0.45487095  0.92990044  0.56404589    -0.73600
O921        O  0.46390497  0.93835189  0.43533844    -0.52800
O922        O  0.54175767  0.91888330  0.47909446    -0.97500
O923        O  0.56603544  0.93800372  0.56089256    -0.54700
O924        O  0.50189552  0.91309400  0.53918024    -0.74100
C925        C  0.47593654  0.90884469  0.55576079     0.98300
O926        O  0.39261906  0.99538544  0.57325530    -0.62900
O927        O  0.51130072  0.08264209  0.59346640    -0.57700
O928        O  0.44727516  0.98860438  0.60477443    -0.94400
O929        O  0.48564975  0.02394636  0.61575355    -0.92800
O930        O  0.43576318  0.10431263  0.54792916    -0.93200
O931        O  0.39023875  0.07021580  0.52678899    -0.92000
C932        C  0.46193054  0.00610714  0.62359973     1.17100
H933        H  0.51353619  0.08323035  0.52660150     0.33000
H934        H  0.40909141  0.01239676  0.50083130     0.43900
H935        H  0.50754955  0.96987369  0.58066556     0.37400
H936        H  0.53287860  0.97706649  0.45725983     0.33900
H937        H  0.40830076  0.10160521  0.47094538     0.25700
H938        H  0.45459369  0.94273136  0.41477412     0.31600
H939        H  0.55028169  0.90049622  0.49012445     0.37500
H940        H  0.45572864  0.10471823  0.56093956     0.32000
H941        H  0.52194054  0.07959311  0.61369234     0.30900
H942        H  0.54809087  0.00064302  0.61784201     0.32600
H943        H  0.55069525  0.93067256  0.57699286     0.31500
H944        H  0.38902346  0.05963831  0.54686671     0.35500
H945        H  0.39548773  0.01510764  0.58388383     0.28300
H946        H  0.58775505  0.05057015  0.44003042     0.32500
H947        H  0.59361058  0.96607023  0.49058235     0.35300
H948        H  0.52600915  0.09657392  0.58223660     0.27900
H949        H  0.37760152  0.00082446  0.55609913     0.40800
H950        H  0.40656756  0.02220213  0.43839764     0.30900
H951        H  0.42981375  0.08034665  0.44916928     0.38500
H952        H  0.57549137  0.95659244  0.56975982     0.30300
H953        H  0.48780679  0.93386158  0.43151235     0.30400
H954        H  0.58921856  0.01514428  0.44656864     0.30700
C955        C  0.50435233  0.22923598  0.41467854     0.86100
C956        C  0.53074919  0.22755809  0.38892540    -0.54100
C957        C  0.52691173  0.24935621  0.36695510     0.09100
C958        C  0.49738233  0.27158375  0.37251357     0.20000
C959        C  0.50549193  0.26188999  0.42724907    -0.54800
C960        C  0.50175367  0.28386466  0.40513990     0.09200
C961        C  0.47137961  0.22847096  0.39696524    -0.54400
C962        C  0.46772719  0.25075635  0.37505399     0.09700
H963        H  0.55061152  0.21041933  0.38700694     0.14200
H964        H  0.49471767  0.28965874  0.35467812     0.00000
H965        H  0.50849300  0.26719752  0.45141868     0.14600
H966        H  0.45249834  0.21190656  0.40151956     0.14300
Zr967      Zr  0.95299581  0.47028048  0.03492496     2.17500
O968        O  0.94726298  0.43569649  0.07864909    -0.51700
O969        O  0.89728475  0.45507695  0.02324318    -0.74900
O970        O  0.93161463  0.49430047  0.08168048    -0.81700
O971        O  0.00249558  0.40584337  0.99195096    -0.83400
O972        O  0.94119454  0.54500852  0.08233295    -0.79000
O973        O  0.97100045  0.41758293  0.03421077    -0.90700
O974        O  0.88273313  0.47627758  0.97784537    -0.76600
O975        O  0.92880409  0.51671870  0.01611901    -0.86100
O976        O  0.95133835  0.46255867  0.98065799    -0.85800
O977        O  0.98997885  0.50859781  0.05143920    -0.72600
O978        O  0.00877602  0.45971129  0.01776949    -0.84700
Zr979      Zr  0.02030915  0.53863568  0.95936221     2.26400
Zr980      Zr  0.96653317  0.55543381  0.03111183     2.06300
Zr981      Zr  0.00757461  0.45369727  0.96305762     2.10000
Zr982      Zr  0.92741947  0.50918055  0.96190341     1.78800
O983        O  0.06111692  0.42647471  0.95919248    -0.93500
O984        O  0.88028337  0.54482818  0.96928964    -0.41300
O985        O  0.98324333  0.50024267  0.94300148    -0.78000
O986        O  0.96380909  0.54873749  0.97628388    -0.96600
O987        O  0.02251107  0.54531417  0.01366203    -0.90000
O988        O  0.04468473  0.49236408  0.97835529    -0.92800
C989        C  0.87718110  0.45868630  0.00083089     1.01000
C990        C  0.98789576  0.39877222  0.01735613     1.13900
C991        C  0.93039338  0.52043946  0.09500490     1.04700
O992        O  0.91562932  0.58670099  0.03503717    -0.94900
O993        O  0.97831691  0.60428354  0.00525705    -0.90700
O994        O  0.01091514  0.59291722  0.96376586    -0.83800
C995        C  0.99500578  0.61201447  0.98110320     1.11300
O996        O  0.05122309  0.47057944  0.08118009    -0.96900
Zr997      Zr  0.04519383  0.49833712  0.03291569     1.88900
O998        O  0.07843144  0.54820619  0.97002635    -0.73600
O999        O  0.99699957  0.58705563  0.06624064    -0.52800
O1000       O  0.06199743  0.52839901  0.07683862    -0.97500
O1001       O  0.08667679  0.45664800  0.02967965    -0.54700
O1002       O  0.09227525  0.52597873  0.01522100    -0.74100
C1003       C  0.09894906  0.54254380  0.99185210     0.98300
O1004       O  0.02528523  0.57730803  0.91934317    -0.62900
O1005       O  0.98162130  0.41935895  0.92713665    -0.57700
O1006       O  0.03546714  0.51615347  0.90942388    -0.94400
O1007       O  0.03022304  0.46477468  0.91145119    -0.92800
O1008       O  0.91193065  0.48110523  0.91623405    -0.93200
O1009       O  0.91819721  0.54188960  0.91725480    -0.92000
C1010       C  0.03765579  0.48946751  0.89706834     1.17100
H1011       H  0.93841031  0.44518797  0.97538624     0.33000
H1012       H  0.95491146  0.56714114  0.96679849     0.43900
H1013       H  0.06660952  0.48849061  0.96974320     0.37400
H1014       H  0.99133599  0.50929722  0.07356716     0.33900
H1015       H  0.86165432  0.53510912  0.95884879     0.25700
H1016       H  0.97961340  0.59816203  0.07845260     0.31600
H1017       H  0.06628972  0.54892107  0.06839428     0.37500
H1018       H  0.93317949  0.47267114  0.90770811     0.32000
H1019       H  0.99971276  0.40486302  0.92061598     0.30900
H1020       H  0.05688038  0.40814681  0.94669771     0.32600
H1021       H  0.10569972  0.46386770  0.04156162     0.31500
H1022       H  0.94020040  0.55020691  0.91246352     0.35500
H1023       H  0.04476413  0.57138284  0.90638588     0.28300
H1024       H  0.92375920  0.43751289  0.08545407     0.32500
H1025       H  0.03098594  0.45844538  0.08283209     0.35300
H1026       H  0.96667776  0.40691549  0.93985507     0.27900
H1027       H  0.00571414  0.57481049  0.90619373     0.40800
H1028       H  0.90776045  0.58856870  0.01362080     0.30900
H1029       H  0.87460170  0.54353709  0.99143397     0.38500
H1030       H  0.09461480  0.45659257  0.00808235     0.30300
H1031       H  0.00741003  0.57239453  0.08085929     0.30400
H1032       H  0.96022005  0.44434489  0.09558464     0.30700
Zr1033     Zr  0.44951172  0.52920455  0.01352338     2.17500
O1034       O  0.39243294  0.53064284  0.03292471    -0.51700
O1035       O  0.45814058  0.58225277  0.02690889    -0.74900
O1036       O  0.44633838  0.52439285  0.06918176    -0.81700
O1037       O  0.41404973  0.53703045  0.93149283    -0.83400
O1038       O  0.49034619  0.49561504  0.08602366    -0.79000
O1039       O  0.40501437  0.54830128  0.98209186    -0.90700
O1040       O  0.50847573  0.59487921  0.00760460    -0.76600
O1041       O  0.50594737  0.53275798  0.02733372    -0.86100
O1042       O  0.47687996  0.54830180  0.96897217    -0.85800
O1043       O  0.46598065  0.47806155  0.02736183    -0.72600
O1044       O  0.44001231  0.49345782  0.97300873    -0.84700
Zr1045     Zr  0.54332399  0.46443517  0.95579056     2.26400
Zr1046     Zr  0.52329093  0.48170846  0.04023751     2.06300
Zr1047     Zr  0.46882329  0.51208487  0.92863017     2.10000
Zr1048     Zr  0.53356941  0.55083171  0.98264874     1.78800
O1049       O  0.43602674  0.48161409  0.89422514    -0.93500
O1050       O  0.57448065  0.56754367  0.01927868    -0.41300
O1051       O  0.52593544  0.51538262  0.94188613    -0.78000
O1052       O  0.55288438  0.50066591  0.99621463    -0.96600
O1053       O  0.51559891  0.44534644  0.99991047    -0.90000
O1054       O  0.48671912  0.46101291  0.94148395    -0.92800
C1055       C  0.48145660  0.60102046  0.02228805     1.01000
C1056       C  0.39668604  0.54839066  0.95382099     1.13900
C1057       C  0.46315442  0.51126844  0.09064959     1.04700
O1058       O  0.55995711  0.50924747  0.07373299    -0.94900
O1059       O  0.57663054  0.45479884  0.03854410    -0.90700
O1060       O  0.59047277  0.45135054  0.98777827    -0.83800
C1061       C  0.59668888  0.44788256  0.01641921     1.11300
O1062       O  0.40611407  0.43499532  0.01253623    -0.96900
Zr1063     Zr  0.45890057  0.44283967  0.98630559     1.88900
O1064       O  0.53479574  0.41081138  0.94501293    -0.73600
O1065       O  0.52074897  0.43587798  0.07182399    -0.52800
O1066       O  0.46584979  0.40319163  0.02535506    -0.97500
O1067       O  0.41627199  0.42505973  0.95194118    -0.54700
O1068       O  0.48285728  0.39899844  0.96050054    -0.74100
C1069       C  0.51098352  0.39241066  0.94803670     0.98300
O1070       O  0.59208899  0.44656519  0.92627407    -0.62900
O1071       O  0.46750381  0.55610561  0.89421828    -0.57700
O1072       O  0.55251037  0.48112744  0.90314605    -0.94400
O1073       O  0.50627596  0.50519488  0.88447193    -0.92800
O1074       O  0.53312996  0.59169742  0.94464573    -0.93200
O1075       O  0.58853337  0.55476838  0.95959687    -0.92000
C1076       C  0.53626600  0.49459196  0.88150030     1.17100
H1077       H  0.46792916  0.56825943  0.96338032     0.33000
H1078       H  0.57604109  0.50283954  0.00061044     0.43900
H1079       H  0.48432718  0.44769035  0.92401793     0.37400
H1080       H  0.45317113  0.47100693  0.04468911     0.33900
H1081       H  0.57804767  0.58919343  0.01393001     0.25700
H1082       H  0.53292838  0.44086072  0.09071663     0.31600
H1083       H  0.48835445  0.39403927  0.02180595     0.37500
H1084       H  0.52728499  0.58163532  0.92515755     0.32000
H1085       H  0.44969555  0.55201165  0.87942798     0.30900
H1086       H  0.41502522  0.47847746  0.90560701     0.32600
H1087       H  0.42735068  0.42307278  0.93159154     0.31500
H1088       H  0.58660843  0.54527882  0.93908353     0.35500
H1089       H  0.61067955  0.45892431  0.93328828     0.28300
H1090       H  0.39064214  0.54850051  0.04688410     0.32500
H1091       H  0.40240152  0.41279756  0.01098374     0.35300
H1092       H  0.45868146  0.57348253  0.90673712     0.27900
H1093       H  0.59747895  0.42561713  0.93372295     0.40800
H1094       H  0.57974288  0.51325217  0.06086204     0.30900
H1095       H  0.56250379  0.56848273  0.03925943     0.38500
H1096       H  0.40052046  0.44274255  0.94969690     0.30300
H1097       H  0.49726248  0.43493291  0.07851735     0.30400
H1098       H  0.39049942  0.51255444  0.04642995     0.30700
Zr1099     Zr  0.95718081  0.53361242  0.47256801     2.17500
O1100       O  0.92060191  0.57884660  0.47879407    -0.51700
O1101       O  0.94267954  0.52540439  0.41904481    -0.74900
O1102       O  0.97977856  0.57916191  0.44980066    -0.81700
O1103       O  0.89071673  0.49115708  0.51773349    -0.83400
O1104       O  0.03577529  0.57678265  0.45501580    -0.79000
O1105       O  0.89880872  0.52822336  0.48186373    -0.90700
O1106       O  0.97087996  0.48284007  0.40202853    -0.76600
O1107       O  0.00504971  0.51291030  0.44700071    -0.86100
O1108       O  0.94902138  0.47995679  0.47104951    -0.85800
O1109       O  0.00246614  0.54842894  0.50416280    -0.72600
O1110       O  0.95149971  0.51761410  0.52515945    -0.84700
Zr1111     Zr  0.03875242  0.45703625  0.53004261     2.26400
Zr1112     Zr  0.05061174  0.52671853  0.47832156     2.06300
Zr1113     Zr  0.94444382  0.46347878  0.52359092     2.10000
Zr1114     Zr  0.99753128  0.45924924  0.44640594     1.78800
O1115       O  0.91692535  0.46279347  0.57374779    -0.93500
O1116       O  0.03887715  0.45723178  0.40514062    -0.41300
O1117       O  0.99320457  0.44210566  0.49873831    -0.78000
O1118       O  0.04372200  0.47237067  0.47700912    -0.96600
O1119       O  0.04648104  0.51063637  0.53115427    -0.90000
O1120       O  0.99017677  0.47717429  0.55488052    -0.92800
C1121       C  0.95136154  0.50617534  0.39792731     1.01000
C1122       C  0.88042835  0.51316732  0.50017961     1.13900
C1123       C  0.00851020  0.59050716  0.44657407     1.04700
O1124       O  0.07808700  0.52719388  0.42817500    -0.94900
O1125       O  0.10431101  0.49932178  0.48308073    -0.90700
O1126       O  0.09699669  0.46163025  0.51849714    -0.83800
C1127       C  0.11485727  0.47678815  0.49973591     1.11300
O1128       O  0.97054662  0.58077350  0.56356135    -0.96900
Zr1129     Zr  0.99776786  0.53070199  0.55616800     1.88900
O1130       O  0.05457245  0.46589359  0.58377273    -0.73600
O1131       O  0.08921982  0.56271299  0.49915267    -0.52800
O1132       O  0.03954952  0.56732841  0.56926119    -0.97500
O1133       O  0.95711003  0.53095302  0.59805099    -0.54700
O1134       O  0.02733187  0.50903261  0.60006710    -0.74100
C1135       C  0.04687192  0.48574333  0.60476206     0.98300
O1136       O  0.07443079  0.41108047  0.52472671    -0.62900
O1137       O  0.90726847  0.42667845  0.50182131    -0.57700
O1138       O  0.01529653  0.41173885  0.55210371    -0.94400
O1139       O  0.95946940  0.41318769  0.54599585    -0.92800
O1140       O  0.95741748  0.42130994  0.43252302    -0.93200
O1141       O  0.02276018  0.40845023  0.43894131    -0.92000
C1142       C  0.98677349  0.39997566  0.55496728     1.17100
H1143       H  0.92932359  0.47534685  0.45966338     0.33000
H1144       H  0.06269959  0.46201119  0.46750342     0.43900
H1145       H  0.98779469  0.46878390  0.57525331     0.37400
H1146       H  0.00344603  0.57042859  0.50511198     0.33900
H1147       H  0.02706042  0.44929817  0.38713646     0.25700
H1148       H  0.09946440  0.57217737  0.48084635     0.31600
H1149       H  0.03792559  0.56953671  0.59188068     0.37500
H1150       H  0.94089019  0.43234307  0.41959236     0.32000
H1151       H  0.92207131  0.40982067  0.49408529     0.30900
H1152       H  0.93239363  0.45142236  0.58746762     0.32600
H1153       H  0.96016817  0.51078275  0.60812878     0.31500
H1154       H  0.04118290  0.40725736  0.45380538     0.35500
H1155       H  0.07791837  0.40317435  0.54582622     0.28300
H1156       H  0.91625393  0.58653089  0.45774829     0.32500
H1157       H  0.97698700  0.58745927  0.58433480     0.35300
H1158       H  0.89574121  0.41789914  0.51982216     0.27900
H1159       H  0.06092534  0.39571170  0.51440726     0.40800
H1160       H  0.06085763  0.53475425  0.41373671     0.30900
H1161       H  0.04260647  0.47889933  0.40003482     0.38500
H1162       H  0.93539477  0.52991402  0.58775446     0.30300
H1163       H  0.07492656  0.57922502  0.50830228     0.30400
H1164       H  0.93415451  0.59453770  0.48854287     0.30700
C1165       C  0.24039842  0.34882517  0.53472891     0.86100
C1166       C  0.21614017  0.37619430  0.52976826    -0.54100
C1167       C  0.22226927  0.39288438  0.50392923     0.09100
C1168       C  0.25205037  0.38002884  0.48457887     0.20000
C1169       C  0.23786507  0.33009727  0.50536816    -0.54800
C1170       C  0.24392568  0.34590187  0.47909575     0.09200
C1171       C  0.27449679  0.36302394  0.53354019    -0.54400
C1172       C  0.28112596  0.37921902  0.50768084     0.09700
H1173       H  0.19579390  0.38288655  0.54491826     0.14200
H1174       H  0.25719413  0.39308047  0.46327388     0.00000
H1175       H  0.23209376  0.30601657  0.50533924     0.14600
H1176       H  0.29175861  0.36129482  0.55254163     0.14300
Zr1177     Zr  0.45586317  0.47721613  0.45911253     2.17500
O1178       O  0.40202126  0.46858232  0.43596040    -0.51700
O1179       O  0.47452264  0.42647630  0.44174461    -0.74900
O1180       O  0.45185608  0.49096219  0.40486331    -0.81700
O1181       O  0.42009878  0.45020715  0.53617426    -0.83400
O1182       O  0.48641640  0.52971945  0.39458465    -0.79000
O1183       O  0.41088819  0.45294455  0.48462618    -0.90700
O1184       O  0.52797353  0.41762480  0.45570293    -0.76600
O1185       O  0.51256757  0.48305567  0.44572295    -0.86100
O1186       O  0.48573244  0.45348387  0.50027634    -0.85800
O1187       O  0.46119355  0.53155236  0.45520449    -0.72600
O1188       O  0.43862448  0.50330537  0.50563746    -0.84700
Zr1189     Zr  0.53275461  0.54046925  0.52901742     2.26400
Zr1190     Zr  0.51864033  0.53746174  0.44221985     2.06300
Zr1191     Zr  0.46985186  0.47995172  0.54669319     2.10000
Zr1192     Zr  0.54237384  0.46014125  0.48748279     1.78800
O1193       O  0.42963232  0.49315233  0.58708044    -0.93500
O1194       O  0.58835364  0.45518816  0.45094554    -0.41300
O1195       O  0.52688589  0.48638694  0.53397894    -0.78000
O1196       O  0.54983775  0.51362851  0.48302213    -0.96600
O1197       O  0.50233768  0.56418677  0.48834102    -0.90000
O1198       O  0.47631433  0.53400845  0.54302326    -0.92800
C1199       C  0.50133696  0.40982005  0.44255060     1.01000
C1200       C  0.40317939  0.44466744  0.51184900     1.13900
C1201       C  0.46379263  0.51104315  0.38674187     1.04700
O1202       O  0.55630759  0.52484822  0.39959552    -0.94900
O1203       O  0.57060504  0.56372947  0.45339192    -0.90700
O1204       O  0.57268585  0.57215752  0.50502148    -0.83800
C1205       C  0.58434438  0.57436827  0.47771315     1.11300
O1206       O  0.39019219  0.55766034  0.48107151    -0.96900
Zr1207     Zr  0.44593684  0.55725024  0.50212575     1.88900
O1208       O  0.51605635  0.59106766  0.54797420    -0.73600
O1209       O  0.50902450  0.58945439  0.42361998    -0.52800
O1210       O  0.43430555  0.60070924  0.46844151    -0.97500
O1211       O  0.40429997  0.56643541  0.54246585    -0.54700
O1212       O  0.46439362  0.60133164  0.53024802    -0.74100
C1213       C  0.49027346  0.60885720  0.54492628     0.98300
O1214       O  0.59025240  0.53525861  0.54624849    -0.62900
O1215       O  0.48236574  0.42962879  0.56834659    -0.57700
O1216       O  0.53463904  0.53154966  0.58379111    -0.94400
O1217       O  0.50440855  0.48937559  0.59279479    -0.92800
O1218       O  0.54872723  0.41400936  0.51854090    -0.93200
O1219       O  0.59604338  0.45848066  0.51277849    -0.92000
C1220       C  0.52500447  0.50985019  0.60116685     1.17100
H1221       H  0.48087694  0.43208482  0.50212851     0.33000
H1222       H  0.57333301  0.51535776  0.47965337     0.43900
H1223       H  0.47118548  0.54384787  0.56248851     0.37400
H1224       H  0.44689443  0.53998376  0.43941344     0.33900
H1225       H  0.59555817  0.43337491  0.45203356     0.25700
H1226       H  0.52629978  0.59211151  0.40758382     0.31600
H1227       H  0.45379976  0.61373197  0.47024642     0.37500
H1228       H  0.56726557  0.40212012  0.50869173     0.32000
H1229       H  0.50689774  0.42810994  0.56886582     0.30900
H1230       H  0.40958565  0.50048287  0.57598350     0.32600
H1231       H  0.41638444  0.56461251  0.56208786     0.31500
H1232       H  0.59084289  0.46184636  0.53483909     0.35500
H1233       H  0.59053032  0.52037470  0.56339094     0.28300
H1234       H  0.40636372  0.45540589  0.41775979     0.32500
H1235       H  0.38307853  0.53631282  0.48315937     0.35300
H1236       H  0.47545969  0.43135561  0.59020284     0.27900
H1237       H  0.60220122  0.52413358  0.52945283     0.40800
H1238       H  0.57838369  0.52176228  0.40906593     0.30900
H1239       H  0.57795750  0.45751005  0.43052445     0.38500
H1240       H  0.39024643  0.54831971  0.54209648     0.30300
H1241       H  0.48797095  0.58891635  0.41216235     0.30400
H1242       H  0.39407272  0.48858005  0.42769463     0.30700
C1243       C  0.39461523  0.51178635  0.21104121     0.86100
C1244       C  0.36955671  0.53868903  0.21668107    -0.54100
C1245       C  0.35133255  0.53708641  0.24303279     0.09100
C1246       C  0.35934918  0.50768943  0.26207639     0.20000
C1247       C  0.41545018  0.51022634  0.24049817    -0.54800
C1248       C  0.39755125  0.50831643  0.26734460     0.09200
C1249       C  0.37291065  0.48369759  0.21256525    -0.54400
C1250       C  0.35457946  0.48067381  0.23897724     0.09700
H1251       H  0.36528096  0.55796182  0.20158290     0.14200
H1252       H  0.34447156  0.50618988  0.28360290     0.00000
H1253       H  0.44231867  0.51132711  0.24012993     0.14600
H1254       H  0.37257831  0.46700911  0.19411270     0.14300
C1255       C  0.98515709  0.79067638  0.93223914     0.86100
C1256       C  0.95585941  0.78535706  0.91009403    -0.54100
C1257       C  0.96039823  0.76025052  0.89132549     0.09100
C1258       C  0.99419716  0.74316497  0.89601492     0.20000
C1259       C  0.99032069  0.76040627  0.94917837    -0.54800
C1260       C  0.99456131  0.73549799  0.93077194     0.09200
C1261       C  0.01487843  0.79262687  0.90989728    -0.54400
C1262       C  0.02076604  0.76792855  0.89103090     0.09700
H1263       H  0.93423605  0.80045197  0.90789017     0.14200
H1264       H  0.99725200  0.72240068  0.88173528     0.00000
H1265       H  0.98973975  0.75874102  0.97410852     0.14600
H1266       H  0.02933629  0.81304528  0.90857352     0.14300
Zr1267     Zr  0.19214384  0.71642875  0.77443082     2.17500
O1268       O  0.13670175  0.69646449  0.76911625    -0.51700
O1269       O  0.20158440  0.69791710  0.82624150    -0.74900
O1270       O  0.19340193  0.66230224  0.76466867    -0.81700
O1271       O  0.15323170  0.79125219  0.79961145    -0.83400
O1272       O  0.23762296  0.64884360  0.73421617    -0.79000
O1273       O  0.14528266  0.74004747  0.80027535    -0.90700
O1274       O  0.24947509  0.71831450  0.84241899    -0.76600
O1275       O  0.24977767  0.70339635  0.77723734    -0.86100
O1276       O  0.21584776  0.75895473  0.79921579    -0.85800
O1277       O  0.20979550  0.70833243  0.72216820    -0.72600
O1278       O  0.17777093  0.75998240  0.74321233    -0.84700
Zr1279     Zr  0.28037715  0.78090363  0.71700229     2.26400
Zr1280     Zr  0.26834140  0.69583748  0.72506199     2.06300
Zr1281     Zr  0.20327365  0.80214442  0.76724834     2.10000
Zr1282     Zr  0.27350319  0.74643770  0.80091148     1.78800
O1283       O  0.16443463  0.83381418  0.73765521    -0.93500
O1284       O  0.31671468  0.70941320  0.81620483    -0.41300
O1285       O  0.26156226  0.78945370  0.76900102    -0.78000
O1286       O  0.29372146  0.73807793  0.74978483    -0.96600
O1287       O  0.25559598  0.73899566  0.69250146    -0.90000
O1288       O  0.22263848  0.79526711  0.71502887    -0.92800
C1289       C  0.22400597  0.70212467  0.84627818     1.01000
C1290       C  0.13676340  0.76746889  0.80760438     1.13900
C1291       C  0.21086951  0.64267253  0.74919624     1.04700
O1292       O  0.30640328  0.65795512  0.74766384    -0.94900
O1293       O  0.32449353  0.70179536  0.70279359    -0.90700
O1294       O  0.33129475  0.75305947  0.70209455    -0.83800
C1295       C  0.34205996  0.72547461  0.69791866     1.11300
O1296       O  0.14158661  0.73473217  0.68542295    -0.96900
Zr1297     Zr  0.19769828  0.75266380  0.69162780     1.88900
O1298       O  0.27143011  0.79645363  0.66380867    -0.73600
O1299       O  0.26827727  0.67102932  0.67501660    -0.52800
O1300       O  0.19234652  0.71521345  0.65075094    -0.97500
O1301       O  0.15902994  0.79286836  0.67401162    -0.54700
O1302       O  0.22391061  0.77583191  0.64797294    -0.74100
C1303       C  0.24997193  0.79109095  0.64313163     0.98300
O1304       O  0.32790216  0.81283925  0.70684681    -0.62900
O1305       O  0.19690081  0.84125239  0.80685955    -0.57700
O1306       O  0.28618562  0.83114971  0.73807368    -0.94400
O1307       O  0.24038835  0.84584211  0.76585031    -0.92800
O1308       O  0.27043043  0.78142339  0.84443152    -0.93200
O1309       O  0.32627239  0.77054720  0.80900199    -0.92000
C1310       C  0.26940441  0.85059717  0.75434906     1.17100
H1311       H  0.20694110  0.76205998  0.81974482     0.33000
H1312       H  0.31728767  0.73433313  0.75218461     0.43900
H1313       H  0.21934877  0.81382095  0.70326535     0.37400
H1314       H  0.19812963  0.69175153  0.71312058     0.33900
H1315       H  0.31380574  0.70696530  0.83868743     0.25700
H1316       H  0.28137499  0.65173160  0.67798429     0.31600
H1317       H  0.18413906  0.72720692  0.63290873     0.37500
H1318       H  0.26664182  0.80188461  0.83513195     0.32000
H1319       H  0.17286165  0.84657056  0.80792696     0.30900
H1320       H  0.17610880  0.85305859  0.73404948     0.32600
H1321       H  0.17231476  0.81127834  0.67111453     0.31500
H1322       H  0.33134884  0.78050667  0.78913115     0.35500
H1323       H  0.34592921  0.80522769  0.72044277     0.28300
H1324       H  0.13546153  0.67911076  0.78366512     0.32500
H1325       H  0.13366465  0.73049423  0.70656493     0.35300
H1326       H  0.20181805  0.83036385  0.82631515     0.27900
H1327       H  0.33568761  0.80796360  0.68568739     0.40800
H1328       H  0.29493099  0.65092089  0.76648620     0.30900
H1329       H  0.30985389  0.68975925  0.80747308     0.38500
H1330       H  0.14457843  0.79765275  0.69202372     0.30300
H1331       H  0.24518586  0.66455251  0.67239677     0.30400
H1332       H  0.13635444  0.68713937  0.74840143     0.30700
C1333       C  0.48326187  0.78588516  0.60464290     0.86100
C1334       C  0.51661085  0.78698935  0.62072245    -0.54100
C1335       C  0.52651924  0.76084785  0.63513415     0.09100
C1336       C  0.50093780  0.73512343  0.63297870     0.20000
C1337       C  0.48693031  0.75755915  0.58320095    -0.54800
C1338       C  0.49612853  0.73095808  0.59817420     0.09200
C1339       C  0.45836629  0.77577433  0.62907774    -0.54400
C1340       C  0.46700519  0.74926933  0.64382279     0.09700
H1341       H  0.53223756  0.80674028  0.61939914     0.14200
H1342       H  0.50820244  0.71373433  0.64526253     0.00000
H1343       H  0.48125481  0.75752184  0.55894768     0.14600
H1344       H  0.43446016  0.78748698  0.63276922     0.14300
C1345       C  0.37748208  0.72219179  0.68778925    -0.00500
C1346       C  0.40117281  0.73813158  0.70444288    -0.12400
C1347       C  0.43265115  0.74371887  0.69192194     0.01700
C1348       C  0.44099031  0.73361180  0.66204362    -0.00600
C1349       C  0.41855334  0.71523844  0.64647889    -0.12300
C1350       C  0.38708443  0.70926527  0.65921279     0.01600
H1351       H  0.39425692  0.74800445  0.72655552     0.14600
H1352       H  0.42448935  0.70769855  0.62327519     0.14600
C1353       C  0.36402017  0.69232965  0.64133850     0.36200
C1354       C  0.45520157  0.76188776  0.70912958     0.36100
N1355       N  0.34552732  0.67864301  0.62709509    -0.44100
N1356       N  0.47346367  0.77632531  0.72285006    -0.44100
C1357       C  0.10613525  0.77051872  0.82729797    -0.00500
C1358       C  0.07873857  0.75269754  0.82035081    -0.12400
C1359       C  0.05090653  0.75117932  0.84016200     0.01700
C1360       C  0.05012360  0.76717421  0.86858080    -0.00600
C1361       C  0.07830401  0.78435471  0.87560469    -0.12300
C1362       C  0.10545539  0.78665762  0.85522832     0.01600
H1363       H  0.07915376  0.73964081  0.79914816     0.14600
H1364       H  0.07977931  0.79583719  0.89754351     0.14600
C1365       C  0.13315474  0.80447150  0.86436788     0.36200
C1366       C  0.02394385  0.73305290  0.82996612     0.36100
N1367       N  0.15537137  0.81871264  0.87177075    -0.44100
N1368       N  0.00297478  0.71803195  0.82111435    -0.44100
C1369       C  0.49084485  0.64028136  0.55870435    -0.00500
C1370       C  0.51896756  0.64862678  0.57527004    -0.12400
C1371       C  0.52172921  0.67809876  0.58739219     0.01700
C1372       C  0.49585485  0.70020573  0.58345009    -0.00600
C1373       C  0.46771639  0.69212251  0.56703179    -0.12300
C1374       C  0.46478106  0.66264497  0.55492715     0.01600
H1375       H  0.53929947  0.63216099  0.57859681     0.14600
H1376       H  0.44739070  0.70875406  0.56435301     0.14600
C1377       C  0.43433114  0.65631068  0.53930934     0.36200
C1378       C  0.55216046  0.68515474  0.60257342     0.36100
N1379       N  0.40982630  0.65127049  0.52696006    -0.44100
N1380       N  0.57696180  0.69006422  0.61443729    -0.44100
C1381       C  0.44923175  0.51250477  0.35515528    -0.00500
C1382       C  0.45498583  0.48779092  0.33501555    -0.12400
C1383       C  0.43839735  0.48599413  0.30673989     0.01700
C1384       C  0.41440493  0.50874081  0.29819381    -0.00600
C1385       C  0.40835942  0.53338684  0.31851223    -0.12300
C1386       C  0.42564434  0.53552888  0.34654825     0.01600
H1387       H  0.47225980  0.46948746  0.34163600     0.14600
H1388       H  0.39035803  0.55121767  0.31233319     0.14600
C1389       C  0.41809710  0.56111161  0.36662334     0.36200
C1390       C  0.44539398  0.45960849  0.28764407     0.36100
N1391       N  0.41214147  0.58160361  0.38278313    -0.44100
N1392       N  0.45115302  0.43809795  0.27285203    -0.44100
C1393       C  0.37201247  0.42800050  0.51397536    -0.00500
C1394       C  0.34257424  0.44354924  0.50526609    -0.12400
C1395       C  0.31307157  0.42804242  0.50113414     0.01700
C1396       C  0.31261905  0.39612217  0.50571650    -0.00600
C1397       C  0.34242994  0.38049247  0.51378097    -0.12300
C1398       C  0.37194552  0.39605927  0.51772259     0.01600
H1399       H  0.34283346  0.46799715  0.50112904     0.14600
H1400       H  0.34254714  0.35594156  0.51727753     0.14600
C1401       C  0.40205578  0.37864252  0.52434854     0.36200
C1402       C  0.28386693  0.44585059  0.49270960     0.36100
N1403       N  0.42613954  0.36453466  0.52951157    -0.44100
N1404       N  0.26116228  0.46099950  0.48562259    -0.44100
C1405       C  0.14935026  0.46521642  0.49639109    -0.00500
C1406       C  0.15811624  0.44817591  0.47000475    -0.12400
C1407       C  0.18449438  0.42637170  0.47060689     0.01700
C1408       C  0.20210867  0.42140795  0.49807521    -0.00600
C1409       C  0.19590639  0.44140882  0.52301838    -0.12300
C1410       C  0.16964247  0.46303225  0.52240198     0.01600
H1411       H  0.14238631  0.44972293  0.44995586     0.14600
H1412       H  0.21004410  0.43851382  0.54395587     0.14600
C1413       C  0.16190495  0.48096119  0.54959250     0.36200
C1414       C  0.19091568  0.40771073  0.44376769     0.36100
N1415       N  0.15520500  0.49550357  0.57112414    -0.44100
N1416       N  0.19614433  0.39307955  0.42200294    -0.44100
C1417       C  0.44916460  0.51338582  0.12253355    -0.00500
C1418       C  0.45351222  0.48862641  0.14283853    -0.12400
C1419       C  0.43712283  0.48814747  0.17158974     0.01700
C1420       C  0.41580172  0.51303244  0.18106175    -0.00600
C1421       C  0.41407473  0.53877310  0.16143866    -0.12300
C1422       C  0.42952633  0.53886260  0.13250217     0.01600
H1423       H  0.46867370  0.46889519  0.13570992     0.14600
H1424       H  0.40068362  0.55945581  0.16784994     0.14600
C1425       C  0.42407777  0.56563680  0.11352901     0.36200
C1426       C  0.44204088  0.46120324  0.19033642     0.36100
N1427       N  0.41881822  0.58710077  0.09859314    -0.44100
N1428       N  0.44604959  0.43931082  0.20492598    -0.44100
C1429       C  0.99570457  0.64466054  0.97081131    -0.00500
C1430       C  0.02013484  0.65285603  0.94898381    -0.12400
C1431       C  0.02005095  0.68194501  0.93547631     0.01700
C1432       C  0.99558630  0.70403594  0.94403049    -0.00600
C1433       C  0.97178588  0.69638947  0.96644499    -0.12300
C1434       C  0.97140654  0.66709059  0.97959200     0.01600
H1435       H  0.03938585  0.63633299  0.94200012     0.14600
H1436       H  0.95276647  0.71324168  0.97319112     0.14600
C1437       C  0.94480535  0.66050992  0.00078262     0.36200
C1438       C  0.04584569  0.68874079  0.91347008     0.36100
N1439       N  0.92333626  0.65530995  0.01765191    -0.44100
N1440       N  0.06646704  0.69418506  0.89578403    -0.44100
C1441       C  0.50049870  0.31670169  0.41221247    -0.00500
C1442       C  0.52912143  0.33334352  0.40781780    -0.12400
C1443       C  0.52961662  0.36420343  0.41598390     0.01700
C1444       C  0.50093010  0.37877213  0.42909860    -0.00600
C1445       C  0.47173764  0.36223036  0.43196961    -0.12300
C1446       C  0.47135224  0.33138894  0.42361731     0.01600
H1447       H  0.55139102  0.32201087  0.39864050     0.14600
H1448       H  0.44950883  0.37304258  0.44187303     0.14600
C1449       C  0.44100429  0.31509751  0.42733285     0.36200
C1450       C  0.55977288  0.38017560  0.41004441     0.36100
N1451       N  0.41669937  0.30198112  0.43008380    -0.44100
N1452       N  0.58421972  0.39235789  0.40475580    -0.44100
C1453       C  0.47091474  0.87757961  0.56692129    -0.00500
C1454       C  0.46823395  0.87285457  0.59855165    -0.12400
C1455       C  0.47042536  0.84337064  0.61081958     0.01700
C1456       C  0.47435302  0.81745192  0.59109292    -0.00600
C1457       C  0.47388469  0.82250731  0.55906155    -0.12300
C1458       C  0.47254042  0.85223795  0.54699929     0.01600
H1459       H  0.46687356  0.89240827  0.61390559     0.14600
H1460       H  0.47641602  0.80376303  0.54305353     0.14600
C1461       C  0.47352817  0.85636935  0.51406012     0.36200
C1462       C  0.47131787  0.84086171  0.64395251     0.36100
N1463       N  0.47431494  0.85998150  0.48771482    -0.44100
N1464       N  0.47227224  0.83902363  0.67047067    -0.44100
C1465       C  0.50556959  0.14599329  0.46669593    -0.00500
C1466       C  0.47949104  0.16783169  0.47125651    -0.12400
C1467       C  0.48091027  0.19704019  0.45847535     0.01700
C1468       C  0.50785371  0.20416225  0.43909740    -0.00600
C1469       C  0.53661025  0.18490899  0.44046234    -0.12300
C1470       C  0.53559082  0.15584021  0.45364921     0.01600
H1471       H  0.45724046  0.16187600  0.48379431     0.14600
H1472       H  0.55991816  0.19186731  0.43070936     0.14600
C1473       C  0.56558766  0.13680428  0.45306456     0.36200
C1474       C  0.45395728  0.21878032  0.46479445     0.36100
N1475       N  0.58962680  0.12159063  0.45260422    -0.44100
N1476       N  0.43247694  0.23619222  0.47025734    -0.44100
C1477       C  0.35218428  0.05354000  0.02728977    -0.00500
C1478       C  0.34467892  0.07057426  0.05398556    -0.12400
C1479       C  0.32096286  0.09464097  0.05324827     0.01700
C1480       C  0.30424396  0.10106413  0.02568048    -0.00600
C1481       C  0.30817872  0.08080686  0.00070619    -0.12300
C1482       C  0.33235042  0.05740211  0.00114407     0.01600
H1483       H  0.35973749  0.06728498  0.07431305     0.14600
H1484       H  0.29407338  0.08475602  0.97989456     0.14600
C1485       C  0.33796132  0.03902379  0.97386546     0.36200
C1486       C  0.31677807  0.11414961  0.07981771     0.36100
N1487       N  0.34263238  0.02430888  0.95205537    -0.44100
N1488       N  0.31344744  0.12971719  0.10118717    -0.44100
C1489       C  0.07168465  0.99696484  0.31412023    -0.00500
C1490       C  0.07244293  0.96973122  0.33148563    -0.12400
C1491       C  0.05335414  0.96667253  0.35834389     0.01700
C1492       C  0.03203050  0.99101223  0.36868855    -0.00600
C1493       C  0.02771779  0.01654093  0.34935975    -0.12300
C1494       C  0.04671159  0.01941037  0.32213271     0.01600
H1495       H  0.08777885  0.95025883  0.32459245     0.14600
H1496       H  0.01056782  0.03497855  0.35616338     0.14600
C1497       C  0.04056882  0.04608063  0.30321700     0.36200
C1498       C  0.05647647  0.93798016  0.37473162     0.36100
N1499       N  0.03570704  0.06735212  0.28789344    -0.44100
N1500       N  0.05940570  0.91487427  0.38753785    -0.44100
C1501       C  0.33376131  0.45273119  0.24319348    -0.00500
C1502       C  0.31486914  0.44253770  0.21826287    -0.12400
C1503       C  0.30065181  0.41347193  0.21804405     0.01700
C1504       C  0.30464858  0.39340388  0.24343074    -0.00600
C1505       C  0.32201472  0.40443369  0.26906550    -0.12300
C1506       C  0.33651617  0.43337960  0.26907186     0.01600
H1507       H  0.31213242  0.45706403  0.19817923     0.14600
H1508       H  0.32539277  0.38995058  0.28908890     0.14600
C1509       C  0.35593277  0.44158614  0.29525276     0.36200
C1510       C  0.28266124  0.40486092  0.19107311     0.36100
N1511       N  0.37137067  0.44778598  0.31648301    -0.44100
N1512       N  0.26840000  0.39790932  0.16936222    -0.44100
C1513       C  0.24532943  0.29116099  0.39650905    -0.00500
C1514       C  0.21499212  0.29892205  0.41116353    -0.12400
C1515       C  0.21393123  0.31773448  0.43744543     0.01700
C1516       C  0.24344182  0.32973351  0.44907039    -0.00600
C1517       C  0.27370246  0.32139756  0.43498483    -0.12300
C1518       C  0.27493032  0.30212653  0.40924695     0.01600
H1519       H  0.19202798  0.29146467  0.40132981     0.14600
H1520       H  0.29657003  0.32931776  0.44465320     0.14600
C1521       C  0.30712031  0.29374506  0.39637086     0.36200
C1522       C  0.18226530  0.32505265  0.45192231     0.36100
N1523       N  0.33300421  0.28699026  0.38630256    -0.44100
N1524       N  0.15708115  0.33113510  0.46378534    -0.44100
C1525       C  0.38007362  0.26308045  0.31984365    -0.00500
C1526       C  0.39594121  0.23401992  0.32264648    -0.12400
C1527       C  0.42449812  0.22956096  0.34012805     0.01700
C1528       C  0.43810175  0.25451009  0.35537372    -0.00600
C1529       C  0.42340766  0.28379422  0.35160372    -0.12300
C1530       C  0.39451059  0.28830144  0.33428152     0.01600
H1531       H  0.38569038  0.21428939  0.31160781     0.14600
H1532       H  0.43418739  0.30321079  0.36271722     0.14600
C1533       C  0.38061648  0.31901798  0.33174899     0.36200
C1534       C  0.43960521  0.19918796  0.34143762     0.36100
N1535       N  0.36964417  0.34372263  0.32996521    -0.44100
N1536       N  0.45150152  0.17479005  0.34261856    -0.44100
C1537       C  0.17574124  0.13319818  0.27090157    -0.00500
C1538       C  0.19579494  0.10813176  0.26056344    -0.12400
C1539       C  0.18370673  0.07807131  0.25957610     0.01700
C1540       C  0.15040389  0.07251217  0.26785211    -0.00600
C1541       C  0.13038658  0.09794380  0.27773758    -0.12300
C1542       C  0.14274663  0.12765082  0.27963863     0.01600
H1543       H  0.22121545  0.11198502  0.25360627     0.14600
H1544       H  0.10464275  0.09474070  0.28397156     0.14600
C1545       C  0.12077202  0.15239116  0.28989546     0.36200
C1546       C  0.20653086  0.05314107  0.25180909     0.36100
N1547       N  0.10327125  0.17230633  0.29810807    -0.44100
N1548       N  0.22483298  0.03301089  0.24592027    -0.44100
C1549       C  0.24534204  0.23247197  0.11857917    -0.00500
C1550       C  0.21703817  0.22655570  0.10129245    -0.12400
C1551       C  0.21913308  0.20717446  0.07577131     0.01700
C1552       C  0.24985605  0.19310834  0.06758969    -0.00600
C1553       C  0.27831184  0.19978599  0.08405699    -0.12300
C1554       C  0.27627392  0.21913352  0.10960672     0.01600
H1555       H  0.19303449  0.23607412  0.10857132     0.14600
H1556       H  0.30211567  0.18965967  0.07703256     0.14600
C1557       C  0.30578017  0.22296935  0.12746470     0.36200
C1558       C  0.18939024  0.20129657  0.05883390     0.36100
N1559       N  0.32967038  0.22559579  0.14156835    -0.44100
N1560       N  0.16555749  0.19626391  0.04541082    -0.44100
C1561       C  0.98395486  0.81732267  0.95573351    -0.00500
C1562       C  0.01441464  0.82589178  0.96867744    -0.12400
C1563       C  0.01668631  0.85166524  0.98760833     0.01700
C1564       C  0.98786775  0.86897945  0.99553682    -0.00600
C1565       C  0.95697177  0.85800891  0.98654244    -0.12300
C1566       C  0.95466257  0.83234076  0.96729076     0.01600
H1567       H  0.03713762  0.81324503  0.96269028     0.14600
H1568       H  0.93444767  0.87066913  0.99325441     0.14600
C1569       C  0.92186997  0.82194826  0.96099680     0.36200
C1570       C  0.04922285  0.86167844  0.99571018     0.36100
N1571       N  0.89529750  0.81396183  0.95637620    -0.44100
N1572       N  0.07524307  0.86995080  0.00203084    -0.44100
C1573       C  0.20253963  0.10806209  0.01669547    -0.00500
C1574       C  0.19879636  0.08834695  0.99159760    -0.12400
C1575       C  0.17260928  0.06830508  0.99030061     0.01700
C1576       C  0.14947150  0.06722449  0.01498078    -0.00600
C1577       C  0.15547790  0.08470012  0.04147109    -0.12300
C1578       C  0.18164705  0.10493572  0.04256956     0.01600
H1579       H  0.21584801  0.08940727  0.97218695     0.14600
H1580       H  0.13876362  0.08364853  0.06104591     0.14600
C1581       C  0.18530460  0.12294354  0.07001440     0.36200
C1582       C  0.16963876  0.05073783  0.96245224     0.36100
N1583       N  0.18816801  0.13686154  0.09238198    -0.44100
N1584       N  0.16794189  0.03699222  0.93984355    -0.44100
C1585       C  0.09566864  0.00664238  0.19942764    -0.00500
C1586       C  0.10211811  0.03098761  0.17960876    -0.12400
C1587       C  0.09276839  0.03038396  0.14852020     0.01700
C1588       C  0.07628050  0.00479431  0.13632624    -0.00600
C1589       C  0.07136885  0.97980314  0.15611841    -0.12300
C1590       C  0.08091987  0.98048605  0.18714213     0.01600
H1591       H  0.11416831  0.05084443  0.18859994     0.14600
H1592       H  0.05957493  0.95966105  0.14753176     0.14600
C1593       C  0.07686228  0.95338880  0.20557540     0.36200
C1594       C  0.10103595  0.05647103  0.12999689     0.36100
N1595       N  0.07397611  0.93167659  0.22043342    -0.44100
N1596       N  0.10795306  0.07762390  0.11562179    -0.44100
C1597       C  0.00181115  0.31222958  0.06193880    -0.00500
C1598       C  0.97116525  0.32775448  0.06377341    -0.12400
C1599       C  0.96551393  0.35474845  0.04742070     0.01700
C1600       C  0.99143015  0.36742524  0.02976025    -0.00600
C1601       C  0.02224555  0.35160684  0.02777296    -0.12300
C1602       C  0.02748969  0.32396606  0.04354005     0.01600
H1603       H  0.95108820  0.31797806  0.07690065     0.14600
H1604       H  0.04242585  0.36120385  0.01466670     0.14600
C1605       C  0.05950587  0.30823108  0.04124331     0.36200
C1606       C  0.93228525  0.36803992  0.04809482     0.36100
N1607       N  0.08500101  0.29533221  0.03975894    -0.44100
N1608       N  0.90547492  0.37826646  0.04868011    -0.44100
C1609       C  0.05217214  0.25636385  0.14316253    -0.00500
C1610       C  0.05869209  0.23108924  0.16235430    -0.12400
C1611       C  0.08222948  0.23235312  0.18563883     0.01700
C1612       C  0.09948361  0.25943246  0.19025804    -0.00600
C1613       C  0.09115645  0.28542082  0.17262073    -0.12300
C1614       C  0.06791194  0.28404377  0.14899647     0.01600
H1615       H  0.04600280  0.20997454  0.15855572     0.14600
H1616       H  0.10453034  0.30626004  0.17585042     0.14600
C1617       C  0.06292366  0.31055719  0.12962501     0.36200
C1618       C  0.08868248  0.20545644  0.20417070     0.36100
N1619       N  0.05926314  0.33200160  0.11430033    -0.44100
N1620       N  0.09403759  0.18397986  0.21907574    -0.44100
C1621       C  0.01140448  0.20062389  0.04865764    -0.00500
C1622       C  0.04301087  0.18703853  0.04310132    -0.12400
C1623       C  0.04681698  0.16140237  0.02440869     0.01700
C1624       C  0.01869987  0.14890014  0.01103885    -0.00600
C1625       C  0.98862607  0.16569578  0.01143918    -0.12300
C1626       C  0.98497193  0.19196393  0.02950999     0.01600
H1627       H  0.06494256  0.19599512  0.05340946     0.14600
H1628       H  0.96722691  0.15696400  0.99982973     0.14600
C1629       C  0.95371368  0.20892364  0.02813514     0.36200
C1630       C  0.07954973  0.14746870  0.02039469     0.36100
N1631       N  0.92854455  0.22226384  0.02647037    -0.44100
N1632       N  0.10587481  0.13657830  0.01709076    -0.44100
C1633       C  0.98623279  0.36862964  0.56873007    -0.00500
C1634       C  0.96212232  0.34810989  0.55957770    -0.12400
C1635       C  0.96298039  0.31757409  0.56987221     0.01700
C1636       C  0.98890545  0.30669046  0.58921228    -0.00600
C1637       C  0.01217950  0.32747981  0.59915498    -0.12300
C1638       C  0.01086874  0.35805589  0.58961146     0.01600
H1639       H  0.94264445  0.35583952  0.54413208     0.14600
H1640       H  0.03153593  0.31987792  0.61477678     0.14600
C1641       C  0.03439011  0.37822073  0.60297259     0.43400
C1642       C  0.93588273  0.29858162  0.56160577     0.36100
N1643       N  0.05318370  0.39413387  0.61412037    -0.44100
N1644       N  0.91400519  0.28346621  0.55514453    -0.44100
C1645       C  0.97517175  0.18878695  0.58995136    -0.00500
C1646       C  0.97431749  0.18569846  0.55773067    -0.12400
C1647       C  0.97147003  0.15701469  0.54391787     0.01700
C1648       C  0.96951279  0.13054744  0.56219805    -0.00600
C1649       C  0.96841493  0.13341065  0.59411890    -0.12300
C1650       C  0.97125532  0.16193069  0.60812552     0.01600
H1651       H  0.97692553  0.20516090  0.54281473     0.14600
H1652       H  0.96699023  0.11303788  0.60824235     0.14600
C1653       C  0.97062097  0.16242915  0.64135316     0.36200
C1654       C  0.97044190  0.15523672  0.51080132     0.36100
N1655       N  0.96953055  0.16241950  0.66794560    -0.44100
N1656       N  0.96934593  0.15374973  0.48428116    -0.44100
C1657       C  0.11718391  0.23066176  0.68239395    -0.00500
C1658       C  0.11492313  0.24608129  0.65406136    -0.12400
C1659       C  0.08422327  0.25209339  0.64017058     0.01700
C1660       C  0.05487085  0.24289318  0.65475611    -0.00600
C1661       C  0.05691061  0.22778102  0.68319932    -0.12300
C1662       C  0.08770733  0.22180234  0.69720223     0.01600
H1663       H  0.13733914  0.25381129  0.64290255     0.14600
H1664       H  0.03439627  0.22009979  0.69417090     0.14600
C1665       C  0.08820886  0.20762058  0.72714537     0.36200
C1666       C  0.08347641  0.26716712  0.61063548     0.36100
N1667       N  0.08822843  0.19631906  0.75120091    -0.44100
N1668       N  0.08294104  0.27924061  0.58696210    -0.44100
C1669       C  0.23869705  0.30141939  0.62226510    -0.00500
C1670       C  0.26083639  0.29181676  0.59890214    -0.12400
C1671       C  0.26035700  0.30569185  0.57011962     0.01700
C1672       C  0.23692611  0.32976797  0.56383786    -0.00600
C1673       C  0.21290279  0.33740040  0.58649578    -0.12300
C1674       C  0.21393980  0.32408787  0.61556763     0.01600
H1675       H  0.27944121  0.27392236  0.60332288     0.14600
H1676       H  0.19373853  0.35463083  0.58272395     0.14600
C1677       C  0.19026709  0.33583456  0.63820214     0.36200
C1678       C  0.28587712  0.29598447  0.54828007     0.36100
N1679       N  0.17128856  0.34564220  0.65606176    -0.44100
N1680       N  0.30659651  0.28842257  0.53102653    -0.44100
C1681       C  0.26427363  0.18417562  0.95423650    -0.00500
C1682       C  0.29296482  0.18128930  0.93547202    -0.12400
C1683       C  0.29249199  0.19040857  0.90475571     0.01700
C1684       C  0.26318278  0.20377344  0.89255470    -0.00600
C1685       C  0.23615281  0.21036374  0.91239735    -0.12300
C1686       C  0.23656868  0.20118314  0.94290699     0.01600
H1687       H  0.31600547  0.17169692  0.94407621     0.14600
H1688       H  0.21378061  0.22178311  0.90391033     0.14600
C1689       C  0.20731898  0.20834258  0.96142341     0.36200
C1690       C  0.32242308  0.18549832  0.88659841     0.36100
N1691       N  0.18371807  0.21416883  0.97591210    -0.44100
N1692       N  0.34646944  0.18138173  0.87221691    -0.44100
C1693       C  0.51054234  0.29995965  0.91844367    -0.00500
C1694       C  0.53379357  0.30864908  0.94046576    -0.12400
C1695       C  0.53640949  0.33933943  0.94892392     0.01700
C1696       C  0.51514071  0.36156796  0.93555850    -0.00600
C1697       C  0.49369332  0.35337041  0.91225984    -0.12300
C1698       C  0.49158342  0.32301612  0.90314520     0.01600
H1699       H  0.54914270  0.29131350  0.95179700     0.14600
H1700       H  0.47762754  0.37078980  0.90182978     0.14600
C1701       C  0.46860515  0.31700555  0.87894730     0.36200
C1702       C  0.55944487  0.34729549  0.97256897     0.36100
N1703       N  0.45030008  0.31412165  0.85895064    -0.44100
N1704       N  0.57794629  0.35383595  0.99142098    -0.44100
C1705       C  0.49045303  0.19357898  0.95824666    -0.00500
C1706       C  0.52001745  0.18171751  0.97143530    -0.12400
C1707       C  0.51995727  0.15590967  0.99051450     0.01700
C1708       C  0.48972265  0.14214206  0.99758321    -0.00600
C1709       C  0.45998549  0.15742628  0.98949304    -0.12300
C1710       C  0.46007928  0.18364880  0.97099599     0.01600
H1711       H  0.54360310  0.19102565  0.96481248     0.14600
H1712       H  0.43652954  0.14813364  0.99670592     0.14600
C1713       C  0.42889827  0.20026517  0.96724050     0.36200
C1714       C  0.55142004  0.14219509  0.99954159     0.36100
N1715       N  0.40357318  0.21320656  0.96473916    -0.44100
N1716       N  0.57673412  0.13128560  0.00662578    -0.44100
C1717       C  0.43791441  0.24631967  0.86499619    -0.00500
C1718       C  0.43910673  0.24081942  0.83327044    -0.12400
C1719       C  0.41090073  0.24639647  0.81507572     0.01700
C1720       C  0.38102210  0.25816485  0.82852144    -0.00600
C1721       C  0.38059012  0.26563960  0.85981835    -0.12300
C1722       C  0.40858372  0.25976998  0.87807480     0.01600
H1723       H  0.46163548  0.23105291  0.82292900     0.14600
H1724       H  0.35782682  0.27468894  0.87035863     0.14600
C1725       C  0.40689388  0.26851787  0.91006077     0.36200
C1726       C  0.41294710  0.23940268  0.78268874     0.36100
N1727       N  0.40561856  0.27590888  0.93558760    -0.44100
N1728       N  0.41468595  0.23395633  0.75668680    -0.44100
C1729       C  0.57894424  0.00850952  0.32170372    -0.00500
C1730       C  0.57207130  0.98146049  0.33818869    -0.12400
C1731       C  0.55099941  0.98149746  0.36430823     0.01700
C1732       C  0.53523058  0.00886456  0.37478104    -0.00600
C1733       C  0.53967096  0.03541935  0.35722588    -0.12300
C1734       C  0.56021368  0.03536224  0.33067627     0.01600
H1735       H  0.58289705  0.95973014  0.33093823     0.14600
H1736       H  0.52739935  0.05662241  0.36466405     0.14600
C1737       C  0.56147221  0.06362029  0.31365616     0.36200
C1738       C  0.54776269  0.95326747  0.38106000     0.36100
N1739       N  0.56219277  0.08667141  0.30065269    -0.44100
N1740       N  0.54554897  0.93049204  0.39432831    -0.44100
C1741       C  0.57399187  0.01107851  0.14290696    -0.00500
C1742       C  0.56049426  0.03164058  0.16490383    -0.12400
C1743       C  0.57087626  0.03079210  0.19564172     0.01700
C1744       C  0.59536426  0.00899513  0.20513962    -0.00600
C1745       C  0.61028504  0.98975681  0.18286582    -0.12300
C1746       C  0.59982212  0.99040952  0.15221002     0.01600
H1747       H  0.54116908  0.04809364  0.15827185     0.14600
H1748       H  0.63008650  0.97380623  0.18947082     0.14600
C1749       C  0.61697445  0.97011085  0.13084987     0.36200
C1750       C  0.55677334  0.05335737  0.21657567     0.36100
N1751       N  0.63124771  0.95378709  0.11410488    -0.44100
N1752       N  0.54533421  0.07159137  0.23314221    -0.44100
C1753       C  0.68540306  0.12244658  0.23571842    -0.00500
C1754       C  0.70628388  0.09599772  0.23525044    -0.12400
C1755       C  0.69412639  0.06724858  0.24385446     0.01700
C1756       C  0.66071543  0.06479588  0.25345624    -0.00600
C1757       C  0.63951462  0.09085885  0.25156353    -0.12300
C1758       C  0.65148293  0.11933841  0.24293327     0.01600
H1759       H  0.73244175  0.09806548  0.22991664     0.14600
H1760       H  0.61346459  0.08908285  0.25742359     0.14600
C1761       C  0.62853022  0.14537757  0.24223588     0.36200
C1762       C  0.71675922  0.04102908  0.24455376     0.36100
N1763       N  0.61018439  0.16626232  0.24154699    -0.44100
N1764       N  0.73478524  0.01990481  0.24515247    -0.44100
C1765       C  0.60778154  0.25162635  0.30412941    -0.00500
C1766       C  0.58918679  0.22525341  0.30590889    -0.12400
C1767       C  0.56045815  0.22488358  0.32403289     0.01700
C1768       C  0.55052530  0.25113711  0.34109680    -0.00600
C1769       C  0.56756188  0.27815813  0.33734788    -0.12300
C1770       C  0.59631005  0.27858263  0.31929481     0.01600
H1771       H  0.59749899  0.20478917  0.29365212     0.14600
H1772       H  0.55989818  0.29830594  0.35037270     0.14600
C1773       C  0.61517981  0.30606249  0.31935944     0.36200
C1774       C  0.54199693  0.19717874  0.32526631     0.36100
N1775       N  0.63019405  0.32812634  0.31989286    -0.44100
N1776       N  0.52731558  0.17492467  0.32623885    -0.44100
C1777       C  0.89005960  0.25489416  0.17532247    -0.00500
C1778       C  0.88467710  0.26141261  0.14407343    -0.12400
C1779       C  0.91078454  0.26067330  0.12276037     0.01700
C1780       C  0.94329418  0.25391100  0.13259256    -0.00600
C1781       C  0.94910793  0.24808485  0.16388402    -0.12300
C1782       C  0.92270107  0.24815415  0.18526468     0.01600
H1783       H  0.85969240  0.26641835  0.13604062     0.14600
H1784       H  0.97419056  0.24277044  0.17145325     0.14600
C1785       C  0.92974114  0.24170817  0.21711287     0.36200
C1786       C  0.90346996  0.26711668  0.09096315     0.36100
N1787       N  0.93537791  0.23648707  0.24264516    -0.44100
N1788       N  0.89713909  0.27248221  0.06561228    -0.44100
C1789       C  0.90281613  0.51031252  0.30979303    -0.00500
C1790       C  0.93779105  0.51093294  0.31111596    -0.12400
C1791       C  0.95432362  0.51030717  0.33956902     0.01700
C1792       C  0.93594010  0.50994120  0.36735524    -0.00600
C1793       C  0.90141710  0.51054231  0.36621634    -0.12300
C1794       C  0.88488245  0.50980605  0.33823838     0.01600
H1795       H  0.95255880  0.51080059  0.29025396     0.14600
H1796       H  0.88722700  0.50984959  0.38751449     0.14600
C1797       C  0.84934106  0.50670923  0.33989323     0.36200
C1798       C  0.99011852  0.51038963  0.33988097     0.36100
N1799       N  0.82095664  0.50388363  0.34155502    -0.44100
N1800       N  0.01880124  0.51055781  0.34043161    -0.44100
C1801       C  0.91614656  0.52043851  0.12725024    -0.00500
C1802       C  0.89394608  0.49736807  0.13491916    -0.12400
C1803       C  0.88278934  0.49260415  0.16515737     0.01700
C1804       C  0.89370285  0.51117386  0.18945932    -0.00600
C1805       C  0.91528820  0.53486426  0.18183304    -0.12300
C1806       C  0.92634276  0.53971810  0.15126156     0.01600
H1807       H  0.88550590  0.48229327  0.11704549     0.14600
H1808       H  0.92347699  0.54987447  0.19983801     0.14600
C1809       C  0.94885696  0.56404844  0.14558437     0.36200
C1810       C  0.86101662  0.46752374  0.17004432     0.36100
N1811       N  0.96679918  0.58374642  0.14136424    -0.44100
N1812       N  0.84324923  0.44746993  0.17292015    -0.44100
C1813       C  0.83327953  0.44239838  0.24856749    -0.00500
C1814       C  0.80145477  0.43715506  0.26040526    -0.12400
C1815       C  0.78974866  0.40727431  0.26294235     0.01700
C1816       C  0.80991122  0.38198348  0.25312189    -0.00600
C1817       C  0.84137939  0.38743896  0.24049216    -0.12300
C1818       C  0.85344150  0.41710988  0.23892440     0.01600
H1819       H  0.78626153  0.45633816  0.26885365     0.14600
H1820       H  0.85701106  0.36829501  0.23263404     0.14600
C1821       C  0.88717469  0.42105061  0.22849753     0.36200
C1822       C  0.75685543  0.40328431  0.27535106     0.36100
N1823       N  0.91419238  0.42444819  0.22027294    -0.44100
N1824       N  0.73043432  0.40039286  0.28534509    -0.44100
C1825       C  0.25624578  0.82597081  0.55031453    -0.00500
C1826       C  0.27446749  0.83962902  0.57373368    -0.12400
C1827       C  0.27363384  0.82860389  0.60406038     0.01700
C1828       C  0.25500698  0.80268448  0.61129765    -0.00600
C1829       C  0.23883300  0.78782509  0.58743691    -0.12300
C1830       C  0.23886400  0.79916402  0.55748328     0.01600
H1831       H  0.28848307  0.85976412  0.56866542     0.14600
H1832       H  0.22482346  0.76762299  0.59238200     0.14600
C1833       C  0.21835580  0.78379141  0.53571906     0.36200
C1834       C  0.29007967  0.84574640  0.62742300     0.36100
N1835       N  0.20194396  0.77121088  0.51847029    -0.44100
N1836       N  0.30304893  0.85970608  0.64611762    -0.44100
C1837       C  0.18689544  0.90288218  0.52083256    -0.00500
C1838       C  0.18170200  0.93216995  0.50854704    -0.12400
C1839       C  0.15207169  0.94884248  0.51436029     0.01700
C1840       C  0.12675957  0.93603500  0.53264140    -0.00600
C1841       C  0.13341584  0.90811344  0.54750514    -0.12300
C1842       C  0.16321892  0.89142616  0.54163606     0.01600
H1843       H  0.19984015  0.94111461  0.49258830     0.14600
H1844       H  0.11418933  0.89804310  0.56145847     0.14600
C1845       C  0.16765362  0.86160549  0.55533270     0.36200
C1846       C  0.14753427  0.97832666  0.49976056     0.36100
N1847       N  0.17067916  0.83778157  0.56667369    -0.44100
N1848       N  0.14437482  0.00193763  0.48796160    -0.44100
C1849       C  0.30269555  0.90342904  0.49271121    -0.00500
C1850       C  0.33119091  0.89234269  0.47655447    -0.12400
C1851       C  0.36079464  0.90813711  0.47640277     0.01700
C1852       C  0.36276604  0.93534571  0.49332828    -0.00600
C1853       C  0.33468291  0.94622389  0.50999933    -0.12300
C1854       C  0.30473176  0.93080958  0.50955132     0.01600
H1855       H  0.33058438  0.87088463  0.46417651     0.14600
H1856       H  0.33609275  0.96712016  0.52324804     0.14600
C1857       C  0.27639655  0.94436081  0.52556129     0.36200
C1858       C  0.38908818  0.89508865  0.45986910     0.36100
N1859       N  0.25386720  0.95550846  0.53848347    -0.44100
N1860       N  0.41151500  0.88432063  0.44649569    -0.44100
C1861       C  0.22721497  0.81056890  0.37481097    -0.00500
C1862       C  0.21903888  0.84140997  0.37999816    -0.12400
C1863       C  0.22002289  0.85373234  0.40959437     0.01700
C1864       C  0.22882839  0.83478494  0.43503831    -0.00600
C1865       C  0.23266836  0.80300895  0.42982915    -0.12300
C1866       C  0.23229632  0.79098342  0.40007259     0.01600
H1867       H  0.21358832  0.85625821  0.36066253     0.14600
H1868       H  0.23681238  0.78707309  0.44835323     0.14600
C1869       C  0.23684376  0.75834969  0.39595297     0.36200
C1870       C  0.21334617  0.88624771  0.41277051     0.36100
N1871       N  0.24023620  0.73221115  0.39252783    -0.44100
N1872       N  0.20794190  0.91226915  0.41529017    -0.44100
C1873       C  0.29456706  0.62213992  0.24716047    -0.00500
C1874       C  0.27971527  0.59569865  0.23609720    -0.12400
C1875       C  0.29645478  0.56676948  0.23747037     0.01700
C1876       C  0.32818015  0.56359357  0.25094481    -0.00600
C1877       C  0.34188433  0.58970707  0.26378555    -0.12300
C1878       C  0.32555311  0.61859841  0.26198490     0.01600
H1879       H  0.25600790  0.59789885  0.22465095     0.14600
H1880       H  0.36660493  0.58794676  0.27333145     0.14600
C1881       C  0.34155151  0.64458247  0.27494762     0.36200
C1882       C  0.28193518  0.54096071  0.22274805     0.36100
N1883       N  0.35424852  0.66544835  0.28538114    -0.44100
N1884       N  0.27062250  0.52013034  0.21088601    -0.44100
C1885       C  0.17686797  0.96085382  0.25561784    -0.00500
C1886       C  0.19338218  0.94682996  0.28063998    -0.12400
C1887       C  0.21148112  0.91894236  0.27744761     0.01700
C1888       C  0.21358488  0.90392722  0.24878098    -0.00600
C1889       C  0.20020378  0.91926287  0.22308292    -0.12300
C1890       C  0.18228952  0.94752640  0.22617255     0.01600
H1891       H  0.19084628  0.95703962  0.30328602     0.14600
H1892       H  0.20214298  0.90833880  0.20074254     0.14600
C1893       C  0.16884385  0.96131652  0.19875000     0.36200
C1894       C  0.22796795  0.90614732  0.30400310     0.36100
N1895       N  0.15909719  0.97198656  0.17610792    -0.44100
N1896       N  0.24182296  0.89624024  0.32511415    -0.44100
C1897       C  0.05476006  0.73954126  0.33881107    -0.00500
C1898       C  0.05794109  0.76091464  0.31507291    -0.12400
C1899       C  0.08647345  0.76087498  0.29649859     0.01700
C1900       C  0.11293287  0.73966439  0.30228361    -0.00600
C1901       C  0.10811888  0.71625674  0.32364826    -0.12300
C1902       C  0.07935364  0.71603423  0.34193084     0.01600
H1903       H  0.03875594  0.77860840  0.31204189     0.14600
H1904       H  0.12789763  0.69936068  0.32770209     0.14600
C1905       C  0.07752242  0.69270296  0.36512520     0.36200
C1906       C  0.08772644  0.78273861  0.27167772     0.36100
N1907       N  0.07769142  0.67314796  0.38299528    -0.44100
N1908       N  0.08799833  0.80008988  0.25159756    -0.44100
C1909       C  0.00726570  0.68495837  0.41565587    -0.00500
C1910       C  0.98579375  0.66403638  0.40270189    -0.12400
C1911       C  0.98648905  0.63317684  0.41158030     0.01700
C1912       C  0.00947157  0.62221727  0.43377983    -0.00600
C1913       C  0.03181841  0.64285210  0.44594725    -0.12300
C1914       C  0.03085119  0.67386475  0.43732333     0.01600
H1915       H  0.96787815  0.67187597  0.38580514     0.14600
H1916       H  0.04974919  0.63487332  0.46280198     0.14600
C1917       C  0.05606567  0.69301856  0.44946833     0.36200
C1918       C  0.96343954  0.61327436  0.39711183     0.36100
N1919       N  0.07676868  0.70792585  0.45900616    -0.44100
N1920       N  0.94483312  0.59750611  0.38546072    -0.44100
C1921       C  0.00589718  0.86299469  0.45250756    -0.00500
C1922       C  0.01647677  0.83739089  0.46956163    -0.12400
C1923       C  0.01905457  0.80818372  0.45606164     0.01700
C1924       C  0.00963269  0.80421780  0.42495792    -0.00600
C1925       C  0.00174202  0.83085501  0.40768875    -0.12300
C1926       C  0.99887780  0.85965267  0.42122650     0.01600
H1927       H  0.02308291  0.84032564  0.49346083     0.14600
H1928       H  0.99614683  0.82896342  0.38343706     0.14600
C1929       C  0.98668451  0.88512719  0.40290774     0.36200
C1930       C  0.03400371  0.78412156  0.47432801     0.36100
N1931       N  0.97660316  0.90538007  0.38822679    -0.44100
N1932       N  0.04652826  0.76555649  0.48966235    -0.44100
C1933       C  0.72937058  0.19087122  0.43493418    -0.00500
C1934       C  0.76035347  0.20171396  0.42486863    -0.12400
C1935       C  0.76302510  0.22177720  0.39990032     0.01700
C1936       C  0.73426166  0.23208460  0.38454619    -0.00600
C1937       C  0.70319455  0.22481355  0.39703442    -0.12300
C1938       C  0.70045076  0.20530419  0.42252991     0.01600
H1939       H  0.78296053  0.19338557  0.43577863     0.14600
H1940       H  0.68082326  0.23358606  0.38599568     0.14600
C1941       C  0.66798396  0.20285404  0.43631935     0.36200
C1942       C  0.79570091  0.22919238  0.38892495     0.36100
N1943       N  0.64185657  0.20152617  0.44744412    -0.44100
N1944       N  0.82198638  0.23504907  0.38030408    -0.44100
C1945       C  0.79223512  0.10135626  0.47846608    -0.00500
C1946       C  0.81531226  0.10982045  0.50032026    -0.12400
C1947       C  0.84657802  0.09534777  0.50164287     0.01700
C1948       C  0.85516494  0.07103907  0.48118980    -0.00600
C1949       C  0.83209989  0.06279383  0.45887365    -0.12300
C1950       C  0.80079910  0.07792275  0.45731436     0.01600
H1951       H  0.80924666  0.12857156  0.51590658     0.14600
H1952       H  0.83820803  0.04418758  0.44315166     0.14600
C1953       C  0.77748934  0.06877865  0.43441591     0.36200
C1954       C  0.86964523  0.10682895  0.52371266     0.36100
N1955       N  0.75850750  0.06168870  0.41620629    -0.44100
N1956       N  0.88791192  0.11615776  0.54146992    -0.44100
C1957       C  0.67429657  0.11141081  0.50654891    -0.00500
C1958       C  0.64565487  0.12868227  0.51522163    -0.12400
C1959       C  0.61811388  0.11466872  0.52846688     0.01700
C1960       C  0.61857257  0.08273365  0.53276268    -0.00600
C1961       C  0.64793986  0.06577722  0.52603338    -0.12300
C1962       C  0.67581762  0.07984253  0.51344092     0.01600
H1963       H  0.64457644  0.15314287  0.51114644     0.14600
H1964       H  0.64821468  0.04109020  0.52838485     0.14600
C1965       C  0.70467706  0.06090922  0.50567001     0.36200
C1966       C  0.58870213  0.13312383  0.53569990     0.36100
N1967       N  0.72787908  0.04573010  0.49962796    -0.44100
N1968       N  0.56510229  0.14777057  0.54172646    -0.44100
C1969       C  0.16689386  0.55344401  0.75003527    -0.00500
C1970       C  0.20188580  0.55588120  0.74839186    -0.12400
C1971       C  0.21696558  0.58440133  0.74735503     0.01700
C1972       C  0.19722693  0.61151751  0.74800288    -0.00600
C1973       C  0.16255424  0.60926136  0.74890692    -0.12300
C1974       C  0.14741699  0.58104091  0.74994877     0.01600
H1975       H  0.21824341  0.53596550  0.74782722     0.14600
H1976       H  0.14688586  0.62988133  0.74890446     0.14600
C1977       C  0.11157014  0.58145279  0.75142862     0.36200
C1978       C  0.25273894  0.58509819  0.74659118     0.36100
N1979       N  0.08288330  0.58204123  0.75287352    -0.44100
N1980       N  0.28141532  0.58557892  0.74591420    -0.44100
C1981       C  0.17468820  0.43713704  0.75236990    -0.00500
C1982       C  0.18077249  0.42182406  0.78013649    -0.12400
C1983       C  0.19960444  0.39429958  0.78076431     0.01700
C1984       C  0.21276903  0.38184592  0.75307962    -0.00600
C1985       C  0.20839699  0.39822545  0.72565463    -0.12300
C1986       C  0.19046007  0.42610848  0.72527282     0.01600
H1987       H  0.17114031  0.43161729  0.80142567     0.14600
H1988       H  0.21905266  0.38912666  0.70441690     0.14600
C1989       C  0.19013826  0.44355443  0.69713056     0.36200
C1990       C  0.20393244  0.37895295  0.80990250     0.36100
N1991       N  0.19085102  0.45749767  0.67453506    -0.44100
N1992       N  0.20720739  0.36711523  0.83352083    -0.44100
C1993       C  0.06116449  0.48217497  0.63657921    -0.00500
C1994       C  0.04574415  0.49832124  0.66128134    -0.12400
C1995       C  0.06002389  0.49889953  0.69065694     0.01700
C1996       C  0.09028629  0.48300826  0.69628324    -0.00600
C1997       C  0.10428858  0.46482280  0.67262931    -0.12300
C1998       C  0.09039254  0.46440315  0.64301484     0.01600
H1999       H  0.02282009  0.51137083  0.65751664     0.14600
H2000       H  0.12715259  0.45208734  0.67681639     0.14600
C2001       C  0.10802658  0.44699135  0.61946827     0.36200
C2002       C  0.04365393  0.51657701  0.71472787     0.36100
N2003       N  0.12224849  0.43294589  0.60070991    -0.44100
N2004       N  0.03060516  0.53047554  0.73426143    -0.44100
C2005       C  0.08502572  0.48762057  0.80643130    -0.00500
C2006       C  0.06386569  0.51229285  0.81547266    -0.12400
C2007       C  0.04590973  0.51201039  0.84333184     0.01700
C2008       C  0.05042987  0.48751856  0.86436384    -0.00600
C2009       C  0.06881787  0.46150565  0.85401087    -0.12300
C2010       C  0.08505395  0.46101008  0.82498854     0.01600
H2011       H  0.06146850  0.53215833  0.80062810     0.14600
H2012       H  0.07105585  0.44162800  0.86882312     0.14600
C2013       C  0.10058249  0.43264187  0.81487867     0.36200
C2014       C  0.02122822  0.53614648  0.84844826     0.36100
N2015       N  0.11152567  0.40910783  0.80705928    -0.44100
N2016       N  0.00078262  0.55513214  0.85138134    -0.44100
C2017       C  0.23412042  0.65917143  0.93333799    -0.00500
C2018       C  0.21302965  0.68528519  0.93046188    -0.12400
C2019       C  0.20733624  0.69879158  0.90174888     0.01700
C2020       C  0.22234667  0.68577732  0.87537896    -0.00600
C2021       C  0.24184013  0.65906431  0.87775091    -0.12300
C2022       C  0.24797123  0.64559660  0.90620945     0.01600
H2023       H  0.20153854  0.69559503  0.95075495     0.14600
H2024       H  0.25379177  0.64952699  0.85723784     0.14600
C2025       C  0.27001621  0.61898878  0.90574352     0.36200
C2026       C  0.18741726  0.72670045  0.90000312     0.36100
N2027       N  0.28734985  0.59752170  0.90313510    -0.44100
N2028       N  0.17151073  0.74913351  0.89866557    -0.44100
C2029       C  0.19143082  0.58926686  0.99663211    -0.00500
C2030       C  0.17231152  0.59170561  0.96996325    -0.12400
C2031       C  0.14314546  0.57558668  0.96686800     0.01700
C2032       C  0.13204929  0.55692539  0.99131764    -0.00600
C2033       C  0.15247570  0.55334594  0.01733256    -0.12300
C2034       C  0.18193584  0.56904560  0.02002962     0.01600
H2035       H  0.17980120  0.60686498  0.95159771     0.14600
H2036       H  0.14530619  0.53855098  0.03608766     0.14600
C2037       C  0.20239914  0.56325191  0.04658672     0.36200
C2038       C  0.12573173  0.57877564  0.93816794     0.36100
N2039       N  0.21882191  0.55835914  0.06779732    -0.44100
N2040       N  0.11239692  0.58146805  0.91485480    -0.44100
C2041       C  0.30681232  0.59321634  0.96982320    -0.00500
C2042       C  0.33374293  0.61019146  0.95974677    -0.12400
C2043       C  0.36245712  0.59546076  0.94840718     0.01700
C2044       C  0.36460743  0.56334464  0.94797125    -0.00600
C2045       C  0.33632234  0.54657245  0.95452100    -0.12300
C2046       C  0.30714432  0.56141174  0.96512167     0.01600
H2047       H  0.33278548  0.63489813  0.96197272     0.14600
H2048       H  0.33807389  0.52178511  0.95433084     0.14600
C2049       C  0.27894818  0.54346950  0.97322526     0.36200
C2050       C  0.39060044  0.61350685  0.94031288     0.36100
N2051       N  0.25622976  0.52914650  0.97949727    -0.44100
N2052       N  0.41306837  0.62801277  0.93370411    -0.44100
C2053       C  0.25851208  0.66959200  0.04794064    -0.00500
C2054       C  0.28748366  0.66893273  0.06606706    -0.12400
C2055       C  0.28881976  0.68464407  0.09415829     0.01700
C2056       C  0.26042459  0.70089390  0.10555112    -0.00600
C2057       C  0.23246659  0.70344957  0.08646420    -0.12300
C2058       C  0.23153958  0.68878161  0.05797265     0.01600
H2059       H  0.30954492  0.65617732  0.05905840     0.14600
H2060       H  0.21068912  0.71680857  0.09383801     0.14600
C2061       C  0.20214045  0.69382718  0.03969308     0.36200
C2062       C  0.32011933  0.68435117  0.11002366     0.36100
N2063       N  0.17872097  0.69831934  0.02500210    -0.44100
N2064       N  0.34545980  0.68436899  0.12226398    -0.44100
C2065       C  0.73989114  0.31327347  0.05203086    -0.00500
C2066       C  0.75417104  0.28327888  0.05209182    -0.12400
C2067       C  0.75516306  0.26559520  0.07904357     0.01700
C2068       C  0.74100949  0.27767286  0.10620720    -0.00600
C2069       C  0.72524347  0.30656184  0.10582573    -0.12300
C2070       C  0.72521319  0.32468955  0.07960511     0.01600
H2071       H  0.76590028  0.27408762  0.03139733     0.14600
H2072       H  0.71466663  0.31590318  0.12703982     0.14600
C2073       C  0.71122945  0.35517138  0.08331780     0.36200
C2074       C  0.77264918  0.23626566  0.07891684     0.36100
N2075       N  0.70054928  0.37951895  0.08846334    -0.44100
N2076       N  0.78670821  0.21277466  0.07905262    -0.44100
C2077       C  0.79767592  0.39455096  0.99907122    -0.00500
C2078       C  0.80206305  0.41489659  0.97447037    -0.12400
C2079       C  0.82602635  0.43727286  0.97516316     0.01700
C2080       C  0.84706272  0.43947914  0.00090353    -0.00600
C2081       C  0.84127235  0.42012231  0.02628086    -0.12300
C2082       C  0.81718758  0.39769979  0.02546683     0.01600
H2083       H  0.78644777  0.41342926  0.95441443     0.14600
H2084       H  0.85636484  0.42172377  0.04663181     0.14600
C2085       C  0.81456414  0.37704037  0.05121231     0.36200
C2086       C  0.82825973  0.45718597  0.94878811     0.36100
N2087       N  0.81252059  0.36045064  0.07182703    -0.44100
N2088       N  0.82973880  0.47309154  0.92758648    -0.44100
C2089       C  0.68803710  0.39937514  0.01685054    -0.00500
C2090       C  0.66085026  0.38744680  0.03252143    -0.12400
C2091       C  0.63188987  0.40516314  0.03710117     0.01700
C2092       C  0.62921101  0.43426650  0.02350069    -0.00600
C2093       C  0.65716031  0.44706006  0.00978722    -0.12300
C2094       C  0.68681227  0.42993822  0.00685023     0.01600
H2095       H  0.66147386  0.36360714  0.03938507     0.14600
H2096       H  0.65505253  0.46958617  0.99940606     0.14600
C2097       C  0.71436586  0.44314380  0.99077757     0.36200
C2098       C  0.60433408  0.39188999  0.05312277     0.36100
N2099       N  0.73617112  0.45418219  0.97788966    -0.44100
N2100       N  0.58246238  0.38124893  0.06628826    -0.44100
C2101       C  0.32285073  0.93436430  0.76332869    -0.00500
C2102       C  0.28769274  0.93529547  0.76155442    -0.12400
C2103       C  0.26946844  0.90848373  0.76036203     0.01700
C2104       C  0.28613728  0.87974815  0.76020059    -0.00600
C2105       C  0.32077629  0.87856196  0.76331961    -0.12300
C2106       C  0.33894563  0.90511152  0.76540857     0.01600
H2107       H  0.27356886  0.95656683  0.76121545     0.14600
H2108       H  0.33390791  0.85652828  0.76422110     0.14600
C2109       C  0.37410905  0.90127805  0.77079380     0.36200
C2110       C  0.23375638  0.91118251  0.75852585     0.36100
N2111       N  0.40206399  0.89781756  0.77595697    -0.44100
N2112       N  0.20511473  0.91329961  0.75732686    -0.44100
C2113       C  0.32737368  0.05004163  0.76260426    -0.00500
C2114       C  0.32485846  0.06608287  0.73474685    -0.12400
C2115       C  0.30530334  0.09316100  0.73271894     0.01700
C2116       C  0.28782246  0.10437063  0.75887145    -0.00600
C2117       C  0.28992047  0.08793646  0.78653560    -0.12300
C2118       C  0.30902734  0.06074947  0.78842557     0.01600
H2119       H  0.33782482  0.05724249  0.71450933     0.14600
H2120       H  0.27705744  0.09671443  0.80687759     0.14600
C2121       C  0.30960252  0.04409130  0.81711296     0.36200
C2122       C  0.30488556  0.10990722  0.70410475     0.36100
N2123       N  0.31040417  0.03055252  0.83996764    -0.44100
N2124       N  0.30454558  0.12349185  0.68127127    -0.44100
C2125       C  0.42972298  0.99397965  0.88650988    -0.00500
C2126       C  0.41705048  0.02124893  0.87264278    -0.12400
C2127       C  0.40395914  0.02168201  0.84247293     0.01700
C2128       C  0.40279051  0.99434528  0.82522946    -0.00600
C2129       C  0.41737378  0.96773533  0.83828830    -0.12300
C2130       C  0.43037132  0.96715818  0.86815003     0.01600
H2131       H  0.41692800  0.04245156  0.88550704     0.14600
H2132       H  0.41770384  0.94661320  0.82523925     0.14600
C2133       C  0.44347614  0.93812958  0.87914070     0.36200
C2134       C  0.39143657  0.05039825  0.83023701     0.36100
N2135       N  0.45381743  0.91470642  0.88773663    -0.44100
N2136       N  0.38187696  0.07369608  0.82062001    -0.44100
C2137       C  0.41411769  0.99601308  0.71313944    -0.00500
C2138       C  0.41430274  0.02493005  0.69871786    -0.12400
C2139       C  0.43181388  0.02946601  0.67066725     0.01700
C2140       C  0.44968510  0.00489093  0.65634125    -0.00600
C2141       C  0.45104882  0.97666122  0.67164754    -0.12300
C2142       C  0.43430698  0.97225376  0.69979054     0.01600
H2143       H  0.39927955  0.04360924  0.70838093     0.14600
H2144       H  0.46479671  0.95758691  0.66114081     0.14600
C2145       C  0.43899647  0.94299228  0.71461265     0.36200
C2146       C  0.42904168  0.05885878  0.65571578     0.36100
N2147       N  0.44360008  0.91941687  0.72609472    -0.44100
N2148       N  0.42691274  0.08232013  0.64348045    -0.44100
C2149       C  0.38437789  0.78201529  0.17444217    -0.00500
C2150       C  0.38546546  0.78840038  0.14293621    -0.12400
C2151       C  0.41390649  0.78089634  0.12556511     0.01700
C2152       C  0.44205226  0.76755108  0.14000855    -0.00600
C2153       C  0.44194778  0.76354801  0.17192339    -0.12300
C2154       C  0.41315546  0.77044180  0.18920787     0.01600
H2155       H  0.36320053  0.79677786  0.13145509     0.14600
H2156       H  0.46349407  0.75311556  0.18296803     0.14600
C2157       C  0.41286164  0.76375112  0.22171492     0.36200
C2158       C  0.41322039  0.78564580  0.09269822     0.36100
N2159       N  0.41244115  0.75844880  0.24777609    -0.44100
N2160       N  0.41302757  0.78947804  0.06637780    -0.44100
C2161       C  0.47823772  0.63161827  0.03589270    -0.00500
C2162       C  0.47611182  0.63394124  0.06781686    -0.12400
C2163       C  0.47926813  0.66203648  0.08245187     0.01700
C2164       C  0.48426167  0.68902661  0.06491353    -0.00600
C2165       C  0.48533973  0.68641676  0.03256264    -0.12300
C2166       C  0.48258946  0.65806025  0.01812936     0.01600
H2167       H  0.47411338  0.61336967  0.08150426     0.14600
H2168       H  0.48972788  0.70585003  0.01805097     0.14600
C2169       C  0.48520528  0.65638662  0.98501210     0.36200
C2170       C  0.47850055  0.66200862  0.11568889     0.36100
N2171       N  0.48738906  0.65479594  0.95851366    -0.44100
N2172       N  0.47768104  0.66195186  0.14228869    -0.44100
C2173       C  0.50816304  0.86323210  0.03546452    -0.00500
C2174       C  0.49320433  0.86098265  0.06448654    -0.12400
C2175       C  0.48928447  0.83283484  0.07876470     0.01700
C2176       C  0.50079392  0.80561345  0.06384405    -0.00600
C2177       C  0.51540340  0.80805270  0.03428304    -0.12300
C2178       C  0.51909264  0.83656238  0.02004834     0.01600
H2179       H  0.48461245  0.88169017  0.07628472     0.14600
H2180       H  0.52507952  0.78775079  0.02259078     0.14600
C2181       C  0.53564908  0.83798010  0.99056850     0.36200
C2182       C  0.47326712  0.83368273  0.10857375     0.36100
N2183       N  0.54908721  0.83896890  0.96697278    -0.44100
N2184       N  0.46083130  0.83580140  0.13261582    -0.44100
C2185       C  0.64473679  0.94348340  0.00284539    -0.00500
C2186       C  0.66374106  0.95041992  0.97644275    -0.12400
C2187       C  0.69256462  0.93340566  0.96882239     0.01700
C2188       C  0.70308312  0.90927156  0.98800012    -0.00600
C2189       C  0.68542339  0.90316699  0.01492610    -0.12300
C2190       C  0.65636529  0.91960890  0.02245264     0.01600
H2191       H  0.65583925  0.96879547  0.96118762     0.14600
H2192       H  0.69398534  0.88478715  0.02987442     0.14600
C2193       C  0.63919215  0.91017469  0.04993361     0.36200
C2194       C  0.71115018  0.94155393  0.94166437     0.36100
N2195       N  0.62628950  0.90152364  0.07200006    -0.44100
N2196       N  0.72584874  0.94837433  0.91987166    -0.44100
C2197       C  0.81430453  0.91372842  0.99015296    -0.00500
C2198       C  0.82698873  0.91780491  0.01957598    -0.12400
C2199       C  0.85304166  0.93729854  0.02423546     0.01700
C2200       C  0.86583565  0.95372564  0.99912284    -0.00600
C2201       C  0.85096304  0.95191420  0.97030423    -0.12300
C2202       C  0.82524222  0.93213671  0.96558274     0.01600
H2203       H  0.81808799  0.90432648  0.03858141     0.14600
H2204       H  0.86048682  0.96499317  0.95112436     0.14600
C2205       C  0.81127258  0.93072576  0.93518543     0.36200
C2206       C  0.86822442  0.93736616  0.05414011     0.36100
N2207       N  0.80047675  0.92935085  0.91070796    -0.44100
N2208       N  0.88022265  0.93687862  0.07818136    -0.44100
C2209       C  0.75631410  0.84084269  0.04518535    -0.00500
C2210       C  0.78185388  0.84771050  0.06533287    -0.12400
C2211       C  0.77984025  0.84017715  0.09649704     0.01700
C2212       C  0.75203345  0.82487685  0.10797575    -0.00600
C2213       C  0.72570029  0.81917242  0.08812815    -0.12300
C2214       C  0.72767548  0.82702297  0.05685841     0.01600
H2215       H  0.80374272  0.85855233  0.05660434     0.14600
H2216       H  0.70424127  0.80741076  0.09673793     0.14600
C2217       C  0.70008211  0.82079474  0.03725580     0.36200
C2218       C  0.80635702  0.84889250  0.11642360     0.36100
N2219       N  0.67786992  0.81595536  0.02157598    -0.44100
N2220       N  0.82739872  0.85616500  0.13246140    -0.44100
C2221       C  0.70900435  0.89518173  0.24979544    -0.00500
C2222       C  0.67611884  0.89953258  0.23919984    -0.12400
C2223       C  0.65731030  0.92658041  0.24452720     0.01700
C2224       C  0.67107889  0.95116833  0.26018814    -0.00600
C2225       C  0.70389768  0.94746609  0.27082365    -0.12300
C2226       C  0.72279133  0.91986359  0.26589953     0.01600
H2227       H  0.66418653  0.88126734  0.22731975     0.14600
H2228       H  0.71461635  0.96597701  0.28346768     0.14600
C2229       C  0.75612889  0.91765078  0.27753240     0.36200
C2230       C  0.62314121  0.92790595  0.23481555     0.36100
N2231       N  0.78288807  0.91591303  0.28687995    -0.44100
N2232       N  0.59572806  0.92876750  0.22715876    -0.44100
C2233       C  0.87937894  0.76170661  0.32039301    -0.00500
C2234       C  0.88090943  0.74154527  0.34563578    -0.12400
C2235       C  0.91049579  0.73606108  0.36168121     0.01700
C2236       C  0.93983810  0.74982473  0.35181955    -0.00600
C2237       C  0.93843210  0.77002761  0.32664913    -0.12300
C2238       C  0.90857038  0.77614155  0.31101903     0.01600
H2239       H  0.85867933  0.73018248  0.35303307     0.14600
H2240       H  0.96060499  0.78175583  0.31976991     0.14600
C2241       C  0.90876158  0.79667392  0.28506998     0.36200
C2242       C  0.90965400  0.71756904  0.38915510     0.36100
N2243       N  0.90907007  0.81321815  0.26431847    -0.44100
N2244       N  0.90858744  0.70302224  0.41134695    -0.44100
C2245       C  0.81318593  0.55432822  0.24289192    -0.00500
C2246       C  0.82347686  0.57277059  0.21843586    -0.12400
C2247       C  0.80968547  0.60233805  0.21436839     0.01700
C2248       C  0.78488408  0.61378747  0.23482391    -0.00600
C2249       C  0.77289606  0.59453683  0.25795112    -0.12300
C2250       C  0.78664276  0.56488514  0.26192650     0.01600
H2251       H  0.84412297  0.56502271  0.20393828     0.14600
H2252       H  0.75378134  0.60313706  0.27372914     0.14600
C2253       C  0.77356754  0.54581067  0.28594541     0.36200
C2254       C  0.82320583  0.62132750  0.19050602     0.36100
N2255       N  0.76262436  0.53040517  0.30487968    -0.44100
N2256       N  0.83422479  0.63643121  0.17136162    -0.44100
C2257       C  0.56004893  0.74550694  0.13376522    -0.00500
C2258       C  0.56907307  0.72179025  0.15411598    -0.12400
C2259       C  0.59962786  0.72133582  0.16925420     0.01700
C2260       C  0.62223802  0.74477897  0.16374825    -0.00600
C2261       C  0.61268296  0.76893389  0.14401400    -0.12300
C2262       C  0.58201771  0.76956242  0.12917891     0.01600
H2263       H  0.55209019  0.70346716  0.15817689     0.14600
H2264       H  0.62956770  0.78726984  0.13963514     0.14600
C2265       C  0.57484089  0.79448570  0.10830037     0.36200
C2266       C  0.60631648  0.69722680  0.19118200     0.36100
N2267       N  0.56997531  0.81484047  0.09178793    -0.44100
N2268       N  0.61123883  0.67791870  0.20889820    -0.44100
C2269       C  0.61772898  0.58717297  0.47556547    -0.00500
C2270       C  0.64257532  0.57046367  0.45938243    -0.12400
C2271       C  0.67597929  0.57773480  0.46201468     0.01700
C2272       C  0.68487436  0.60245204  0.48057867    -0.00600
C2273       C  0.66022683  0.61938016  0.49652132    -0.12300
C2274       C  0.62689960  0.61173665  0.49452299     0.01600
H2275       H  0.63607594  0.55078024  0.44584825     0.14600
H2276       H  0.66696735  0.63901529  0.51000934     0.14600
C2277       C  0.60260187  0.62952294  0.51211863     0.36200
C2278       C  0.70093095  0.55909461  0.44615685     0.36100
N2279       N  0.58320944  0.64367722  0.52639273    -0.44100
N2280       N  0.72098705  0.54397343  0.43375179    -0.44100
C2281       C  0.79525955  0.57012193  0.49372074    -0.00500
C2282       C  0.80224487  0.54853622  0.47047491    -0.12400
C2283       C  0.82692423  0.52566301  0.47421691     0.01700
C2284       C  0.84553422  0.52435983  0.50144035    -0.00600
C2285       C  0.83570488  0.54331675  0.52613126    -0.12300
C2286       C  0.81058751  0.56606794  0.52257126     0.01600
H2287       H  0.78987981  0.55077803  0.44854477     0.14600
H2288       H  0.84998356  0.54254112  0.54712769     0.14600
C2289       C  0.80355421  0.58646828  0.54798614     0.36200
C2290       C  0.83440393  0.50509991  0.44896568     0.36100
N2291       N  0.79823807  0.60221253  0.56893507    -0.44100
N2292       N  0.83998943  0.48844901  0.42877990    -0.44100
C2293       C  0.76824172  0.65935026  0.42287126    -0.00500
C2294       C  0.76671107  0.69157815  0.42105069    -0.12400
C2295       C  0.76488841  0.70665342  0.39270483     0.01700
C2296       C  0.76522371  0.68967402  0.36527616    -0.00600
C2297       C  0.76851412  0.65784409  0.36656173    -0.12300
C2298       C  0.76939828  0.64256773  0.39477240     0.01600
H2299       H  0.76487098  0.70551767  0.44144522     0.14600
H2300       H  0.76871634  0.64475578  0.34536855     0.14600
C2301       C  0.76932921  0.60956258  0.39378201     0.36200
C2302       C  0.76238640  0.73965169  0.39236202     0.36100
N2303       N  0.76934935  0.58314381  0.39267326    -0.44100
N2304       N  0.76036243  0.76608490  0.39211905    -0.44100
C2305       C  0.58758783  0.50729129  0.79488891    -0.00500
C2306       C  0.60490122  0.50679631  0.82262916    -0.12400
C2307       C  0.58867795  0.50324768  0.85071748     0.01700
C2308       C  0.55403141  0.49892618  0.85170598    -0.00600
C2309       C  0.53650163  0.49925874  0.82379192    -0.12300
C2310       C  0.55302871  0.50350176  0.79546280     0.01600
H2311       H  0.63152407  0.50976869  0.82240541     0.14600
H2312       H  0.50991038  0.49631978  0.82409699     0.14600
C2313       C  0.53404878  0.50521511  0.76754899     0.36200
C2314       C  0.60845609  0.50615833  0.87798017     0.36100
N2315       N  0.51901529  0.50676674  0.74505873    -0.44100
N2316       N  0.62505414  0.50889168  0.89926703    -0.44100
C2317       C  0.58165242  0.51202254  0.68511464    -0.00500
C2318       C  0.58015284  0.48473175  0.66824175    -0.12400
C2319       C  0.56011955  0.48284390  0.64194571     0.01700
C2320       C  0.54053332  0.50844323  0.63228699    -0.00600
C2321       C  0.54092209  0.53526372  0.65013456    -0.12300
C2322       C  0.56088901  0.53711590  0.67637479     0.01600
H2323       H  0.59604623  0.46532832  0.67463725     0.14600
H2324       H  0.52624387  0.55519781  0.64301762     0.14600
C2325       C  0.55961205  0.56497465  0.69418371     0.36200
C2326       C  0.56248163  0.45533056  0.62369988     0.36100
N2327       N  0.55879013  0.58708683  0.70878195    -0.44100
N2328       N  0.56464641  0.43332165  0.60899477    -0.44100
C2329       C  0.68271155  0.38524023  0.73647475    -0.00500
C2330       C  0.65518861  0.39394617  0.75518999    -0.12400
C2331       C  0.64186084  0.42409951  0.75542980     0.01700
C2332       C  0.65608523  0.44672419  0.73663300    -0.00600
C2333       C  0.68252186  0.43780868  0.71702104    -0.12300
C2334       C  0.69571323  0.40775136  0.71656047     0.01600
H2335       H  0.64427094  0.37728471  0.77036231     0.14600
H2336       H  0.69317691  0.45463141  0.70183970     0.14600
C2337       C  0.72268648  0.40131663  0.69522754     0.36200
C2338       C  0.61464582  0.43098167  0.77636606     0.36100
N2339       N  0.74424561  0.39667824  0.67791289    -0.44100
N2340       N  0.59271536  0.43552835  0.79330584    -0.44100
C2341       C  0.72854207  0.30229299  0.87485480    -0.00500
C2342       C  0.74829124  0.28765850  0.89722913    -0.12400
C2343       C  0.74974740  0.29884321  0.92716508     0.01700
C2344       C  0.73006368  0.32486017  0.93602876    -0.00600
C2345       C  0.71022151  0.33943291  0.91334261    -0.12300
C2346       C  0.70912536  0.32837650  0.88325122     0.01600
H2347       H  0.76348425  0.26759356  0.89115797     0.14600
H2348       H  0.69682730  0.36069743  0.91797294     0.14600
C2349       C  0.68954347  0.34559313  0.86115735     0.36200
C2350       C  0.77288244  0.28361203  0.94770770     0.36100
N2351       N  0.67390037  0.35942291  0.84348080    -0.44100
N2352       N  0.79131177  0.27122337  0.96411526    -0.44100
C2353       C  0.55700657  0.22175260  0.86361172    -0.00500
C2354       C  0.55358919  0.22680327  0.83192418    -0.12400
C2355       C  0.58143148  0.22631258  0.81222770     0.01700
C2356       C  0.61344684  0.22024268  0.82404177    -0.00600
C2357       C  0.61698003  0.21473488  0.85553568    -0.12300
C2358       C  0.58931768  0.21577981  0.87539971     0.01600
H2359       H  0.52913984  0.23151971  0.82255487     0.14600
H2360       H  0.64165837  0.21125594  0.86489158     0.14600
C2361       C  0.59540617  0.21308206  0.90796522     0.36200
C2362       C  0.57668460  0.23263184  0.77997730     0.36100
N2363       N  0.60052961  0.21097093  0.93401716    -0.44100
N2364       N  0.57289305  0.23769323  0.75412014    -0.44100
C2365       C  0.87304896  0.27658424  0.68811303    -0.00500
C2366       C  0.89588676  0.25759307  0.70391826    -0.12400
C2367       C  0.92837802  0.25333791  0.69312180     0.01700
C2368       C  0.93828967  0.26816553  0.66607554    -0.00600
C2369       C  0.91701861  0.29038483  0.65273250    -0.12300
C2370       C  0.88434400  0.29477777  0.66361942     0.01600
H2371       H  0.88760340  0.24424726  0.72340658     0.14600
H2372       H  0.92469575  0.30182818  0.63184359     0.14600
C2373       C  0.86217474  0.31544641  0.64725415     0.36200
C2374       C  0.95017621  0.23146910  0.70837923     0.36100
N2375       N  0.84453465  0.33213756  0.63412476    -0.44100
N2376       N  0.96760990  0.21400723  0.72073538    -0.44100
C2377       C  0.74255511  0.18834572  0.60742637    -0.00500
C2378       C  0.76874098  0.19669689  0.58793812    -0.12400
C2379       C  0.77003261  0.18696304  0.55731328     0.01700
C2380       C  0.74535073  0.16789552  0.54632178    -0.00600
C2381       C  0.72023364  0.15832425  0.56625236    -0.12300
C2382       C  0.71839889  0.16861314  0.59651438     0.01600
H2383       H  0.78740384  0.21182946  0.59629379     0.14600
H2384       H  0.70123553  0.14359909  0.55788936     0.14600
C2385       C  0.69159262  0.15839195  0.61583070     0.36200
C2386       C  0.79653041  0.19698252  0.53753867     0.36100
N2387       N  0.67001950  0.15001898  0.63107013    -0.44100
N2388       N  0.81757461  0.20505267  0.52148821    -0.44100
C2389       C  0.90726670  0.99714988  0.70401298    -0.00500
C2390       C  0.90288907  0.02354419  0.68614569    -0.12400
C2391       C  0.92031609  0.02715051  0.65830641     0.01700
C2392       C  0.94259369  0.00360996  0.64724966    -0.00600
C2393       C  0.94748749  0.97743801  0.66572011    -0.12300
C2394       C  0.93009401  0.97406126  0.69374288     0.01600
H2395       H  0.88600955  0.04170353  0.69423530     0.14600
H2396       H  0.96391707  0.95894573  0.65769002     0.14600
C2397       C  0.93471193  0.94595390  0.71075238     0.36200
C2398       C  0.91496268  0.05565638  0.64203598     0.36100
N2399       N  0.93824634  0.92332410  0.72427869    -0.44100
N2400       N  0.91036440  0.07860978  0.62929531    -0.44100
C2401       C  0.90024322  0.99858953  0.82141063    -0.00500
C2402       C  0.93011173  0.01473368  0.82272734    -0.12400
C2403       C  0.94608356  0.02045625  0.85066309     0.01700
C2404       C  0.93234913  0.01027253  0.87857768    -0.00600
C2405       C  0.90184264  0.99574391  0.87777186    -0.12300
C2406       C  0.88523053  0.99095676  0.85003641     0.01600
H2407       H  0.94093385  0.02385807  0.80194946     0.14600
H2408       H  0.89044210  0.98867224  0.89922636     0.14600
C2409       C  0.85202610  0.97986549  0.85242432     0.36200
C2410       C  0.97693002  0.03624500  0.84988329     0.36100
N2411       N  0.82536464  0.97113530  0.85493145    -0.44100
N2412       N  0.00162178  0.04897365  0.84910888    -0.44100
C2413       C  0.79023568  0.11169336  0.74193652    -0.00500
C2414       C  0.77437709  0.08404463  0.73634200    -0.12400
C2415       C  0.79163624  0.05550461  0.73946387     0.01700
C2416       C  0.82510138  0.05435524  0.74884917    -0.00600
C2417       C  0.84093284  0.08205311  0.75351845    -0.12300
C2418       C  0.82400983  0.11027573  0.75047793     0.01600
H2419       H  0.74860927  0.08473093  0.72945264     0.14600
H2420       H  0.86665527  0.08162131  0.76064118     0.14600
C2421       C  0.84155543  0.13741528  0.75832056     0.36200
C2422       C  0.77434351  0.02778114  0.73382407     0.36100
N2423       N  0.85569172  0.15900884  0.76487790    -0.44100
N2424       N  0.76063049  0.00548163  0.72910824    -0.44100
C2425       C  0.72647242  0.60833854  0.73864015    -0.00500
C2426       C  0.72163986  0.59070052  0.71214551    -0.12400
C2427       C  0.69980849  0.56625909  0.71219820     0.01700
C2428       C  0.68054102  0.55977885  0.73876300    -0.00600
C2429       C  0.68823234  0.57570013  0.76605622    -0.12300
C2430       C  0.71039905  0.59984127  0.76605420     0.01600
H2431       H  0.73413149  0.59678691  0.69091026     0.14600
H2432       H  0.67722478  0.56977275  0.78785549     0.14600
C2433       C  0.71421122  0.61710305  0.79402011     0.36200
C2434       C  0.69732943  0.54853384  0.68439750     0.36100
N2435       N  0.71722897  0.63107655  0.81632992    -0.44100
N2436       N  0.69515129  0.53416190  0.66223765    -0.44100
C2437       C  0.75807107  0.68285879  0.60177747    -0.00500
C2438       C  0.78537200  0.68509368  0.58142828    -0.12400
C2439       C  0.78492360  0.67277082  0.55169352     0.01700
C2440       C  0.75648388  0.65822250  0.54116169    -0.00600
C2441       C  0.72955871  0.65510642  0.56137864    -0.12300
C2442       C  0.72999019  0.66707295  0.59133670     0.01600
H2443       H  0.80757391  0.69618123  0.58879355     0.14600
H2444       H  0.70788879  0.64339637  0.55363582     0.14600
C2445       C  0.70108168  0.66240266  0.61041330     0.36200
C2446       C  0.81486901  0.67336233  0.53319389     0.36100
N2447       N  0.67769987  0.65827423  0.62530732    -0.44100
N2448       N  0.83879919  0.67337648  0.51826679    -0.44100
C2449       C  0.62703815  0.76175710  0.66861949    -0.00500
C2450       C  0.62107352  0.76237497  0.63698989    -0.12400
C2451       C  0.58863891  0.76093535  0.62575478     0.01700
C2452       C  0.56136975  0.75783462  0.64630853    -0.00600
C2453       C  0.56744355  0.75688353  0.67795805    -0.12300
C2454       C  0.59991067  0.75892564  0.68918264     0.01600
H2455       H  0.64181001  0.76388498  0.62103141     0.14600
H2456       H  0.54672718  0.75546246  0.69393934     0.14600
C2457       C  0.60491063  0.75820523  0.72197601     0.36200
C2458       C  0.58395417  0.76265033  0.59291011     0.36100
N2459       N  0.60898652  0.75775272  0.74826010    -0.44100
N2460       N  0.58019184  0.76415340  0.56661219    -0.44100
C2461       C  0.79115594  0.88613490  0.73813767    -0.00500
C2462       C  0.77888147  0.90638911  0.76086034    -0.12400
C2463       C  0.79392416  0.93447403  0.76617790     0.01700
C2464       C  0.82214180  0.94275508  0.74885969    -0.00600
C2465       C  0.83327645  0.92328743  0.72496225    -0.12300
C2466       C  0.81819602  0.89517539  0.71962262     0.01600
H2467       H  0.75840113  0.89964653  0.77544238     0.14600
H2468       H  0.85496655  0.92923119  0.71156165     0.14600
C2469       C  0.83194143  0.87522789  0.69597648     0.36200
C2470       C  0.78006321  0.95436604  0.78976109     0.36100
N2471       N  0.84292514  0.85932178  0.67693553    -0.44100
N2472       N  0.76852584  0.97036380  0.80844713    -0.44100
C2473       C  0.76840430  0.79986451  0.86990179    -0.00500
C2474       C  0.73961173  0.80008466  0.88841841    -0.12400
C2475       C  0.73908510  0.81293399  0.91774969     0.01700
C2476       C  0.76749434  0.82730800  0.92886710    -0.00600
C2477       C  0.79745444  0.82317799  0.91191870    -0.12300
C2478       C  0.79805798  0.81007746  0.88261329     0.01600
H2479       H  0.71691004  0.79087195  0.87970830     0.14600
H2480       H  0.82086023  0.82979059  0.92117973     0.14600
C2481       C  0.82960012  0.80682250  0.86661317     0.36200
C2482       C  0.70851266  0.81179902  0.93526448     0.36100
N2483       N  0.85488922  0.80421049  0.85388219    -0.44100
N2484       N  0.68374881  0.81088876  0.94886586    -0.44100
C2485       C  0.88791057  0.73479033  0.82264711    -0.00500
C2486       C  0.88410568  0.72584090  0.85353031    -0.12400
C2487       C  0.90722916  0.73399617  0.87610686     0.01700
C2488       C  0.93536680  0.75084632  0.86802385    -0.00600
C2489       C  0.93955212  0.75927642  0.83716080    -0.12300
C2490       C  0.91626910  0.75164945  0.81471491     0.01600
H2491       H  0.86189692  0.71422316  0.86044833     0.14600
H2492       H  0.96075090  0.77256271  0.83066217     0.14600
C2493       C  0.92161784  0.76217839  0.78363624     0.36200
C2494       C  0.90065969  0.72623394  0.90775852     0.36100
N2495       N  0.92596079  0.77068377  0.75876667    -0.44100
N2496       N  0.89515335  0.72029958  0.93318627    -0.44100
loop_ 
_geom_bond_atom_site_label_1 
_geom_bond_atom_site_label_2 
_geom_bond_distance 
_geom_bond_site_symmetry_2 
_ccdc_geom_bond_type 
Zr1           O2   2.442       .  S
Zr1           O3   2.439       .  S
Zr1           O4   2.422       .  S
Zr1           O7   2.391       .  S
Zr1           O9   2.377       .  S
Zr1          O10   2.383       .  S
Zr1          O11   2.403       .  S
Zr1          O12   2.405       .  S
O2           H58   0.991       .  S
O2           H66   0.990       .  S
O3           C23   1.285       .  A
O4           C25   1.280       .  A
O5          Zr15   2.528       .  S
O5           C24   1.302       .  A
O6          Zr14   2.487       .  S
O6           C25   1.293       .  A
O7           C24   1.276       .  A
O8          Zr16   2.394       .  S
O8           C23   1.277       .  A
O9          Zr14   2.400       .  S
O9          Zr16   2.388       .  S
O10         Zr15   2.383       .  S
O10         Zr16   2.373       .  S
O10          H45   0.965       .  S
O11         Zr14   2.402       .  S
O11         Zr31   2.402       .  S
O11          H48   0.964       .  S
O12         Zr15   2.397       .  S
O12         Zr31   2.404       .  S
Zr13         O38   2.443       .  S
Zr13         O32   2.434       .  S
Zr13         O40   2.398       .  S
Zr13         O28   2.429       .  S
Zr13         O19   2.404       .  S
Zr13         O20   2.403       .  S
Zr13         O21   2.376       .  S
Zr13         O22   2.388       .  S
Zr14         O33   2.436       .  S
Zr14         O26   2.435       .  S
Zr14         O27   2.471       .  S
Zr14         O20   2.406       .  S
Zr14         O21   2.408       .  S
Zr15         O17   2.434       .  S
Zr15         O39   2.437       .  S
Zr15         O41   2.493       .  S
Zr15         O19   2.400       .  S
Zr15         O22   2.411       .  S
Zr16         O42   2.435       .  S
Zr16         O43   2.435       .  S
Zr16         O18   2.437       .  S
Zr16         O19   2.382       .  S
Zr16         O20   2.381       .  S
O17          H54   0.990       .  S
O18          H49   0.990       .  S
O18          H63   0.990       .  S
O20          H46   0.964       .  S
O21         Zr31   2.382       .  S
O22         Zr31   2.375       .  S
O22          H47   0.966       .  S
C23        C2473   1.480       .  S
C24        C2485   1.503       .  S
C25        C2461   1.492       .  S
O26          H62   0.990       .  S
O27          C29   1.292       .  A
O28          C29   1.282       .  A
C29        C2449   1.483       .  S
O30         Zr31   2.435       .  S
O30          H59   0.990       .  S
Zr31         O34   2.435       .  S
Zr31         O35   2.437       .  S
Zr31         O36   2.442       .  S
O32          C37   1.282       .  A
O33          H50   0.990       .  S
O33          H65   0.990       .  S
O34          H51   0.990       .  S
O35          H55   0.990       .  S
O35          H64   0.990       .  S
O36          C37   1.286       .  A
C37        C2437   1.506       .  S
O38          H57   0.990       .  S
O38          H61   0.990       .  S
O39          H53   0.990       .  S
O39          H60   0.990       .  S
O40          C44   1.278       .  A
O41          C44   1.297       .  A
O42          H52   0.990       .  S
O43          H56   0.990       .  S
C44        C2425   1.490       .  S
C67          C68   1.545       .  S
C67          C73   1.526   1_565  S
C67          C71   1.548       .  S
C67        C2401   1.551       .  S
C68          H75   1.085       .  S
C68          C69   1.372       .  D
C69          C70   1.554       .  S
C69        C2464   1.502       .  S
C70          C74   1.551   1_565  S
C70          C72   1.548       .  S
C70          H76   1.110       .  S
C71          H77   1.085       .  S
C71          C72   1.367       .  D
C72        C2389   1.495       .  S
C73          H78   1.087       .  S
C73          C74   1.364       .  D
C74        C2416   1.501       .  S
Zr79         O80   2.444       .  S
Zr79         O81   2.425       .  S
Zr79         O82   2.437       .  S
Zr79         O85   2.430       .  S
Zr79         O87   2.381       .  S
Zr79         O88   2.386       .  S
Zr79         O89   2.411       .  S
Zr79         O90   2.386       .  S
O80         H136   0.990       .  S
O80         H144   0.990       .  S
O81         C101   1.280       .  A
O82         C103   1.284       .  A
O83         Zr93   2.438       .  S
O83         C102   1.284       .  A
O84         Zr92   2.477       .  S
O84         C103   1.291       .  A
O85         C102   1.285       .  A
O86         Zr94   2.406       .  S
O86         C101   1.279       .  A
O87         Zr92   2.400       .  S
O87         Zr94   2.384       .  S
O88         Zr93   2.400       .  S
O88         Zr94   2.382       .  S
O88         H123   0.967       .  S
O89         Zr92   2.404       .  S
O89        Zr109   2.388       .  S
O89         H126   0.962       .  S
O90         Zr93   2.385       .  S
O90        Zr109   2.368       .  S
Zr91        O116   2.442       .  S
Zr91        O110   2.436       .  S
Zr91        O118   2.447       .  S
Zr91        O106   2.422       .  S
Zr91         O97   2.392       .  S
Zr91         O98   2.410       .  S
Zr91         O99   2.386       .  S
Zr91        O100   2.380       .  S
Zr92        O111   2.435       .  S
Zr92        O104   2.435       .  S
Zr92        O105   2.458       .  S
Zr92         O98   2.412       .  S
Zr92         O99   2.401       .  S
Zr93         O95   2.437       .  S
Zr93        O117   2.437       .  S
Zr93        O119   2.442       .  S
Zr93         O97   2.388       .  S
Zr93        O100   2.395       .  S
Zr94        O120   2.435       .  S
Zr94        O121   2.436       .  S
Zr94         O96   2.435       .  S
Zr94         O97   2.388       .  S
Zr94         O98   2.391       .  S
O95         H132   0.990       .  S
O96         H127   0.990       .  S
O96         H141   0.989       .  S
O98         H124   0.964       .  S
O99        Zr109   2.377       .  S
O100       Zr109   2.386       .  S
O100        H125   0.967       .  S
C101       C2377   1.467       .  S
C102       C2365   1.474       .  S
C103       C2413   1.496       .  S
O104        H140   0.990       .  S
O105        C107   1.289       .  A
O106        C107   1.280       .  A
C107       C2356   1.478       .  S
O108       Zr109   2.439       .  S
O108        H137   0.990       .  S
Zr109       O112   2.436       .  S
Zr109       O113   2.440       .  S
Zr109       O114   2.390       .  S
O110        C115   1.284       .  A
O111        H128   0.990       .  S
O111        H143   0.990       .  S
O112        H129   0.990       .  S
O113        H133   0.990       .  S
O113        H142   0.990       .  S
O114        C115   1.277       .  A
C115       C2341   1.481       .  S
O116        H135   0.991       .  S
O116        H139   0.991       .  S
O117        H131   0.990       .  S
O117        H138   0.990       .  S
O118        C122   1.288       .  A
O119        C122   1.286       .  A
O120        H130   0.990       .  S
O121        H134   0.990       .  S
C122       C2329   1.509       .  S
C145        C146   1.536       .  S
C145        C151   1.545       .  S
C145        C149   1.538       .  S
C145       C2428   1.555       .  S
C146        H153   1.082       .  S
C146        C147   1.363       .  D
C147        C148   1.542       .  S
C147       C2305   1.485       .  S
C148        C152   1.546       .  S
C148        C150   1.544       .  S
C148        H154   1.109       .  S
C149        H155   1.086       .  S
C149        C150   1.372       .  D
C150       C2332   1.502       .  S
C151        H156   1.085       .  S
C151        C152   1.374       .  D
C152       C2317   1.501       .  S
C157        C158   1.524       .  S
C157        C163   1.537       .  S
C157        C161   1.548       .  S
C157       C2293   1.534       .  S
C158        H165   1.088       .  S
C158        C159   1.352       .  D
C159        C160   1.540       .  S
C159       C2272   1.471       .  S
C160        C164   1.543       .  S
C160        C162   1.543       .  S
C160        H166   1.110       .  S
C161        H167   1.082       .  S
C161        C162   1.371       .  D
C162       C2440   1.491       .  S
C163        H168   1.086       .  S
C163        C164   1.370       .  D
C164       C2281   1.490       .  S
Zr169       O170   2.441       .  S
Zr169       O171   2.448       .  S
Zr169       O172   2.429       .  S
Zr169       O175   2.416       .  S
Zr169       O177   2.386       .  S
Zr169       O178   2.382       .  S
Zr169       O179   2.410       .  S
Zr169       O180   2.403       .  S
O170        H226   0.990       .  S
O170        H234   0.990       .  S
O171        C191   1.286       .  A
O172        C193   1.284       .  A
O173       Zr183   2.448       .  S
O173        C192   1.288       .  A
O174       Zr182   2.508       .  S
O174        C193   1.298       .  A
O175        C192   1.282       .  A
O176       Zr184   2.404       .  S
O176        C191   1.279       .  A
O177       Zr182   2.408       .  S
O177       Zr184   2.388       .  S
O178       Zr183   2.396       .  S
O178       Zr184   2.379       .  S
O178        H213   0.967       .  S
O179       Zr182   2.403       .  S
O179       Zr199   2.384       .  S
O179        H216   0.964       .  S
O180       Zr183   2.395       .  S
O180       Zr199   2.396       .  S
Zr181       O206   2.442       .  S
Zr181       O200   2.412       .  S
Zr181       O208   2.423       .  S
Zr181       O196   2.387       .  S
Zr181       O187   2.385       .  S
Zr181       O188   2.401       .  S
Zr181       O189   2.385       .  S
Zr181       O190   2.373       .  S
Zr182       O201   2.437       .  S
Zr182       O194   2.433       .  S
Zr182       O195   2.498       .  S
Zr182       O188   2.406       .  S
Zr182       O189   2.395       .  S
Zr183       O185   2.433       .  S
Zr183       O207   2.436       .  S
Zr183       O209   2.460       .  S
Zr183       O187   2.391       .  S
Zr183       O190   2.387       .  S
Zr184       O210   2.435       .  S
Zr184       O211   2.437       .  S
Zr184       O186   2.435       .  S
Zr184       O187   2.395       .  S
Zr184       O188   2.382       .  S
O185        H222   0.990       .  S
O186        H217   0.990       .  S
O186        H231   0.990       .  S
O188        H214   0.967       .  S
O189       Zr199   2.369       .  S
O190       Zr199   2.375       .  S
O190        H215   0.967       .  S
C191       C2212   1.478       .  S
C192       C2260   1.490       .  S
C193       C2221   1.521       .  S
O194        H230   0.990       .  S
O195        C197   1.298       .  A
O196        C197   1.278       .  A
C197       C2233   1.487       .  S
O198       Zr199   2.439       .  S
O198        H227   0.990       .  S
Zr199       O202   2.435       .  S
Zr199       O203   2.438       .  S
Zr199       O204   2.431       .  S
O200        C205   1.280       .  A
O201        H218   0.990       .  S
O201        H233   0.990       .  S
O202        H219   0.990       .  S
O203        H223   0.990       .  S
O203        H232   0.990       .  S
O204        C205   1.284       .  A
C205       C2296   1.470       .  S
O206        H225   0.990       .  S
O206        H229   0.990       .  S
O207        H221   0.990       .  S
O207        H228   0.990       .  S
O208        C212   1.282       .  A
O209        C212   1.289       .  A
O210        H220   0.990       .  S
O211        H224   0.990       .  S
C212       C2248   1.480       .  S
C235        C236   1.538       .  S
C235        C241   1.546       .  S
C235        C239   1.544       .  S
C235       C2476   1.533       .  S
C236        H243   1.081       .  S
C236        C237   1.358       .  D
C237        C238   1.524   1_556  S
C237       C2197   1.468       .  S
C238        C242   1.523   1_554  S
C238        C240   1.531       .  S
C238        H244   1.112       .  S
C239        H245   1.086       .  S
C239        C240   1.369   1_556  D
C240       C2209   1.481       .  S
C241        H246   1.086       .  S
C241        C242   1.362       .  D
C242       C2188   1.465       .  S
C247        C248   1.529       .  S
C247        C253   1.532       .  S
C247        C251   1.549       .  S
C247       C2164   1.533       .  S
C248        H255   1.087       .  S
C248        C249   1.359       .  D
C249        C250   1.538       .  S
C249       C2152   1.473       .  S
C250        C254   1.539       .  S
C250        C252   1.544       .  S
C250        H256   1.106       .  S
C251        H257   1.080       .  S
C251        C252   1.374       .  D
C252       C2176   1.497       .  S
C253        H258   1.087       .  S
C253        C254   1.361       .  D
C254       C2257   1.488       .  S
C259        C260   1.530       .  S
C259        C265   1.542       .  S
C259        C263   1.533       .  S
C259       C2101   1.548       .  S
C260        H267   1.087       .  S
C260        C261   1.368       .  D
C261        C262   1.567   1_565  S
C261       C2128   1.519       .  S
C262        C266   1.563   1_545  S
C262        C264   1.551       .  S
C262        H268   1.109       .  S
C263        H269   1.080       .  S
C263        C264   1.358   1_565  D
C264       C2113   1.479       .  S
C265        H270   1.086       .  S
C265        C266   1.375       .  D
C266       C2137   1.521       .  S
C271        C272   1.532       .  S
C271        C277   1.536       .  S
C271        C275   1.536       .  S
C271       C2344   1.531       .  S
C272        H279   1.087       .  S
C272        C273   1.365       .  D
C273        C274   1.540   1_556  S
C273       C2077   1.492       .  S
C274        C278   1.529       .  S
C274        C276   1.551       .  S
C274        H280   1.106       .  S
C275        H281   1.085       .  S
C275        C276   1.369   1_556  D
C276       C2065   1.494       .  S
C277        H282   1.083       .  S
C277        C278   1.357   1_556  D
C278       C2089   1.462       .  S
C283        C284   1.542       .  S
C283        C289   1.539       .  S
C283        C287   1.546   1_554  S
C283       C2053   1.544       .  S
C284        H291   1.080       .  S
C284        C285   1.363   1_554  D
C285        C286   1.525       .  S
C285       C2041   1.468       .  S
C286        C290   1.529       .  S
C286        C288   1.530       .  S
C286        H292   1.108       .  S
C287        H293   1.086       .  S
C287        C288   1.375       .  D
C288       C2017   1.489       .  S
C289        H294   1.086       .  S
C289        C290   1.364   1_554  D
C290       C2029   1.481       .  S
C295        C296   1.538       .  S
C295        C301   1.536       .  S
C295        C299   1.537       .  S
C295       C1969   1.545       .  S
C296        H303   1.086       .  S
C296        C297   1.371       .  D
C297        C298   1.560       .  S
C297       C2005   1.514       .  S
C298        C302   1.554       .  S
C298        C300   1.551       .  S
C298        H304   1.110       .  S
C299        H305   1.080       .  S
C299        C300   1.359       .  D
C300       C1981   1.480       .  S
C301        H306   1.087       .  S
C301        C302   1.365       .  D
C302       C1996   1.499       .  S
C307        C308   1.555       .  S
C307        C313   1.541       .  S
C307        C311   1.534       .  S
C307       C1933   1.543       .  S
C308        H315   1.079       .  S
C308        C309   1.374       .  D
C309        C310   1.535       .  S
C309       C1957   1.496       .  S
C310        C314   1.538       .  S
C310        C312   1.527       .  S
C310        H316   1.111       .  S
C311        H317   1.087       .  S
C311        C312   1.360       .  D
C312       C2380   1.471       .  S
C313        H318   1.086       .  S
C313        C314   1.361       .  D
C314       C1945   1.479       .  S
C319        C320   1.533   1_455  S
C319        C325   1.533       .  S
C319        C323   1.550       .  S
C319       C1924   1.540       .  S
C320        H327   1.088       .  S
C320        C321   1.352       .  D
C321        C322   1.549       .  S
C321       C2236   1.485       .  S
C322        C326   1.537   1_655  S
C322        C324   1.551   1_655  S
C322        H328   1.110       .  S
C323        H329   1.078       .  S
C323        C324   1.377       .  D
C324       C1909   1.503       .  S
C325        H330   1.087       .  S
C325        C326   1.362       .  D
C326       C1897   1.480       .  S
Zr331       O332   2.443       .  S
Zr331       O333   2.456       .  S
Zr331       O334   2.465       .  S
Zr331       O337   2.412       .  S
Zr331       O339   2.376       .  S
Zr331       O340   2.396       .  S
Zr331       O341   2.406       .  S
Zr331       O342   2.412       .  S
O332        H388   0.990       .  S
O332        H396   0.991       .  S
O333        C353   1.287       .  A
O334        C355   1.288       .  A
O335       Zr345   2.437       .  S
O335        C354   1.285       .  A
O336       Zr344   2.475       .  S
O336        C355   1.290       .  A
O337        C354   1.280       .  A
O338       Zr346   2.397       .  S
O338        C353   1.278       .  A
O339       Zr344   2.397       .  S
O339       Zr346   2.394       .  S
O340       Zr345   2.404       .  S
O340       Zr346   2.370       .  S
O340        H375   0.967       .  S
O341       Zr344   2.403       .  S
O341       Zr361   2.387       .  S
O341        H378   0.962       .  S
O342       Zr345   2.407       .  S
O342       Zr361   2.390       .  S
Zr343       O368   2.437       .  S
Zr343       O362   2.423       .  S
Zr343       O370   2.447       .  S
Zr343       O358   2.422       .  S
Zr343       O349   2.398       .  S
Zr343       O350   2.406       .  S
Zr343       O351   2.390       .  S
Zr343       O352   2.378       .  S
Zr344       O363   2.437       .  S
Zr344       O356   2.434       .  S
Zr344       O357   2.446       .  S
Zr344       O350   2.404       .  S
Zr344       O351   2.408       .  S
Zr345       O347   2.435       .  S
Zr345       O369   2.435       .  S
Zr345       O371   2.474       .  S
Zr345       O349   2.390       .  S
Zr345       O352   2.393       .  S
Zr346       O372   2.435       .  S
Zr346       O373   2.436       .  S
Zr346       O348   2.436       .  S
Zr346       O349   2.393       .  S
Zr346       O350   2.373       .  S
O347        H384   0.990       .  S
O348        H379   0.990       .  S
O348        H393   0.990       .  S
O350        H376   0.961       .  S
O351       Zr361   2.380       .  S
O352       Zr361   2.377       .  S
O352        H377   0.966       .  S
C353       C2056   1.498       .  S
C354       C2149   1.466       .  S
C355       C1873   1.504       .  S
O356        H392   0.990       .  S
O357        C359   1.288       .  A
O358        C359   1.284       .  A
C359       C1900   1.479       .  S
O360       Zr361   2.436       .  S
O360        H389   0.990       .  S
Zr361       O364   2.434       .  S
Zr361       O365   2.440       .  S
Zr361       O366   2.418       .  S
O362        C367   1.281       .  A
O363        H380   0.990       .  S
O363        H395   0.990       .  S
O364        H381   0.990       .  S
O365        H385   0.990       .  S
O365        H394   0.990       .  S
O366        C367   1.282       .  A
C367       C1861   1.472       .  S
O368        H387   0.990       .  S
O368        H391   0.990       .  S
O369        H383   0.990       .  S
O369        H390   0.990       .  S
O370        C374   1.285       .  A
O371        C374   1.291       .  A
O372        H382   0.990       .  S
O373        H386   0.990       .  S
C374       C1888   1.502       .  S
C397        C398   1.526       .  S
C397        C403   1.533       .  S
C397        C401   1.546       .  S
C397       C1864   1.535       .  S
C398        H405   1.087       .  S
C398        C399   1.363       .  D
C399        C400   1.553       .  S
C399       C1849   1.496       .  S
C400        C404   1.540       .  S
C400        C402   1.544       .  S
C400        H406   1.107       .  S
C401        H407   1.077       .  S
C401        C402   1.370       .  D
C402       C1825   1.497       .  S
C403        H408   1.086       .  S
C403        C404   1.361       .  D
C404       C1837   1.483       .  S
C409        C410   1.525       .  S
C409        C415   1.533       .  S
C409        C413   1.560       .  S
C409       C1789   1.543       .  S
C410        H417   1.088       .  S
C410        C411   1.354       .  D
C411        C412   1.552       .  S
C411       C1813   1.488       .  S
C412        C416   1.543       .  S
C412        C414   1.551       .  S
C412        H418   1.108       .  S
C413        H419   1.083       .  S
C413        C414   1.384       .  D
C414       C1804   1.515       .  S
C415        H420   1.087       .  S
C415        C416   1.361       .  D
C416       C2245   1.486       .  S
Zr421       O422   2.444       .  S
Zr421       O423   2.408       .  S
Zr421       O424   2.436       .  S
Zr421       O427   2.399       .  S
Zr421       O429   2.374       .  S
Zr421       O430   2.386       .  S
Zr421       O431   2.396       .  S
Zr421       O432   2.390       .  S
O422        H478   0.990       .  S
O422        H486   0.991       .  S
O423        C443   1.278       .  A
O424        C445   1.282       .  A
O425       Zr435   2.442       .  S
O425        C444   1.285       .  A
O426       Zr434   2.468       .  S
O426        C445   1.291       .  A
O427        C444   1.280       .  A
O428       Zr436   2.445       .  S
O428        C443   1.284       .  A
O429       Zr434   2.412       .  S
O429       Zr436   2.386       .  S
O430       Zr435   2.405       .  S
O430       Zr436   2.371       .  S
O430        H465   0.965       .  S
O431       Zr434   2.407       .  S
O431       Zr451   2.386       .  S
O431        H468   0.965       .  S
O432       Zr435   2.400       .  S
O432       Zr451   2.366       .  S
Zr433       O458   2.442       .  S
Zr433       O452   2.436       .  S
Zr433       O460   2.421       .  S
Zr433       O448   2.388       .  S
Zr433       O439   2.396       .  S
Zr433       O440   2.406       .  S
Zr433       O441   2.376       .  S
Zr433       O442   2.368       .  S
Zr434       O453   2.437       .  S
Zr434       O446   2.435       .  S
Zr434       O447   2.485       .  S
Zr434       O440   2.403       .  S
Zr434       O441   2.390       .  S
Zr435       O437   2.439       .  S
Zr435       O459   2.435       .  S
Zr435       O461   2.473       .  S
Zr435       O439   2.390       .  S
Zr435       O442   2.393       .  S
Zr436       O462   2.435       .  S
Zr436       O463   2.435       .  S
Zr436       O438   2.437       .  S
Zr436       O439   2.405       .  S
Zr436       O440   2.402       .  S
O437        H474   0.990       .  S
O438        H469   0.990       .  S
O438        H483   0.990       .  S
O440        H466   0.965       .  S
O441       Zr451   2.381       .  S
O442       Zr451   2.383       .  S
O442        H467   0.967       .  S
C443       C1777   1.481       .  S
C444       C2068   1.463       .  S
C445       C1816   1.490       .  S
O446        H482   0.990       .  S
O447        C449   1.294       .  A
O448        C449   1.277       .  A
C449       C1936   1.481       .  S
O450       Zr451   2.437       .  S
O450        H479   0.990       .  S
Zr451       O454   2.435       .  S
Zr451       O455   2.437       .  S
Zr451       O456   2.389       .  S
O452        C457   1.285       .  A
O453        H470   0.990       .  S
O453        H485   0.990       .  S
O454        H471   0.990       .  S
O455        H475   0.990       .  S
O455        H484   0.990       .  S
O456        C457   1.275       .  A
C457       C1765   1.465       .  S
O458        H477   0.990       .  S
O458        H481   0.990       .  S
O459        H473   0.990       .  S
O459        H480   0.990       .  S
O460        C464   1.281       .  A
O461        C464   1.290       .  A
O462        H472   0.990       .  S
O463        H476   0.990       .  S
C464       C1753   1.490       .  S
C487        C488   1.548       .  S
C487        C493   1.552   1_545  S
C487        C491   1.543       .  S
C487       C1729   1.568       .  S
C488        H495   1.084       .  S
C488        C489   1.374       .  D
C489        C490   1.541       .  S
C489       C1756   1.501       .  S
C490        C494   1.549   1_545  S
C490        C492   1.539       .  S
C490        H496   1.110       .  S
C491        H497   1.086       .  S
C491        C492   1.372       .  D
C492       C1744   1.496       .  S
C493        H498   1.083       .  S
C493        C494   1.367       .  D
C494       C2224   1.505       .  S
C499        C500   1.541       .  S
C499        C505   1.541       .  S
C499        C503   1.534       .  S
C499       C1705   1.541       .  S
C500        H507   1.085       .  S
C500        C501   1.365       .  D
C501        C502   1.546       .  S
C501       C2353   1.497       .  S
C502        C506   1.544       .  S
C502        C504   1.537       .  S
C502        H508   1.109       .  S
C503        H509   1.086       .  S
C503        C504   1.370       .  D
C504       C1693   1.485       .  S
C505        H510   1.081       .  S
C505        C506   1.364       .  D
C506       C1717   1.492       .  S
Zr511       O512   2.441       .  S
Zr511       O513   2.387       .  S
Zr511       O514   2.417       .  S
Zr511       O517   2.387       .  S
Zr511       O519   2.378       .  S
Zr511       O520   2.382       .  S
Zr511       O521   2.381       .  S
Zr511       O522   2.385       .  S
O512        H568   0.990       .  S
O512        H576   0.990       .  S
O513        C533   1.274       .  A
O514        C535   1.281       .  A
O515       Zr525   2.484       .  S
O515        C534   1.295       .  A
O516       Zr524   2.451       .  S
O516        C535   1.287       .  A
O517        C534   1.276       .  A
O518       Zr526   2.420       .  S
O518        C533   1.283       .  A
O519       Zr524   2.398       .  S
O519       Zr526   2.381       .  S
O520       Zr525   2.391       .  S
O520       Zr526   2.374       .  S
O520        H555   0.966       .  S
O521       Zr524   2.410       .  S
O521       Zr541   2.373       .  S
O521        H558   0.965       .  S
O522       Zr525   2.390       .  S
O522       Zr541   2.375       .  S
Zr523       O548   2.443       .  S
Zr523       O542   2.427       .  S
Zr523       O550   2.395       .  S
Zr523       O538   2.422       .  S
Zr523       O529   2.399       .  S
Zr523       O530   2.399       .  S
Zr523       O531   2.370       .  S
Zr523       O532   2.386       .  S
Zr524       O543   2.435       .  S
Zr524       O536   2.435       .  S
Zr524       O537   2.470       .  S
Zr524       O530   2.401       .  S
Zr524       O531   2.391       .  S
Zr525       O527   2.435       .  S
Zr525       O549   2.437       .  S
Zr525       O551   2.462       .  S
Zr525       O529   2.397       .  S
Zr525       O532   2.397       .  S
Zr526       O552   2.435       .  S
Zr526       O553   2.436       .  S
Zr526       O528   2.435       .  S
Zr526       O529   2.390       .  S
Zr526       O530   2.394       .  S
O527        H564   0.990       .  S
O528        H559   0.990       .  S
O528        H573   0.990       .  S
O530        H556   0.966       .  S
O531       Zr541   2.384       .  S
O532       Zr541   2.379       .  S
O532        H557   0.965       .  S
C533       C1669   1.477       .  S
C534       C1657   1.480       .  S
C535       C1984   1.475       .  S
O536        H572   0.990       .  S
O537        C539   1.290       .  A
O538        C539   1.280       .  A
C539       C1720   1.484       .  S
O540       Zr541   2.437       .  S
O540        H569   0.990       .  S
Zr541       O544   2.434       .  S
Zr541       O545   2.443       .  S
Zr541       O546   2.376       .  S
O542        C547   1.282       .  A
O543        H560   0.990       .  S
O543        H575   0.989       .  S
O544        H561   0.990       .  S
O545        H565   0.990       .  S
O545        H574   0.990       .  S
O546        C547   1.275       .  A
C547       C1684   1.474       .  S
O548        H567   0.990       .  S
O548        H571   0.990       .  S
O549        H563   0.990       .  S
O549        H570   0.990       .  S
O550        C554   1.277       .  A
O551        C554   1.290       .  A
O552        H562   0.990       .  S
O553        H566   0.990       .  S
C554       C2116   1.474       .  S
C577        C578   1.529       .  S
C577        C583   1.526   1_655  S
C577        C581   1.556       .  S
C577       C1645   1.536       .  S
C578        H585   1.087       .  S
C578        C579   1.361       .  D
C579        C580   1.532       .  S
C579       C2368   1.470       .  S
C580        C584   1.546   1_655  S
C580        C582   1.543       .  S
C580        H586   1.110   1_655  S
C581        H587   1.081       .  S
C581        C582   1.376       .  D
C582       C1636   1.499       .  S
C583        H588   1.087       .  S
C583        C584   1.356       .  D
C584       C1660   1.480       .  S
C589        C590   1.540   1_455  S
C589        C595   1.546       .  S
C589        C593   1.516       .  S
C589       C1621   1.519       .  S
C590        H597   1.086       .  S
C590        C591   1.365       .  D
C591        C592   1.536   1_655  S
C591       C1780   1.477       .  S
C592        C596   1.535       .  S
C592        C594   1.542       .  S
C592        H598   1.111   1_455  S
C593        H599   1.088       .  S
C593        C594   1.353       .  D
C594       C1597   1.466       .  S
C595        H600   1.084       .  S
C595        C596   1.367       .  D
C596       C1609   1.482       .  S
Zr601       O602   2.440       .  S
Zr601       O603   2.415       .  S
Zr601       O604   2.432       .  S
Zr601       O607   2.391       .  S
Zr601       O609   2.372   1_545  S
Zr601       O610   2.382   1_554  S
Zr601       O611   2.393   1_455  S
Zr601       O612   2.396   1_455  S
O602        H658   0.990       .  S
O602        H666   0.990       .  S
O603        C623   1.282       .  A
O604        C625   1.284       .  A
O605       Zr615   2.428   1_455  S
O605        C624   1.284   1_556  A
O606       Zr614   2.480       .  S
O606        C625   1.295   1_565  A
O607        C624   1.279       .  A
O608       Zr616   2.440       .  S
O608        C623   1.284   1_556  A
O609       Zr614   2.400       .  S
O609       Zr616   2.376   1_564  S
O610       Zr615   2.400   1_455  S
O610       Zr616   2.366       .  S
O610        H645   0.965       .  S
O611       Zr614   2.403   1_645  S
O611       Zr631   2.389       .  S
O611        H648   0.966       .  S
O612       Zr615   2.407   1_554  S
O612       Zr631   2.384       .  S
Zr613       O638   2.441       .  S
Zr613       O632   2.401       .  S
Zr613       O640   2.410       .  S
Zr613       O628   2.381       .  S
Zr613       O619   2.391   1_665  S
Zr613       O620   2.400   1_655  S
Zr613       O621   2.377   1_556  S
Zr613       O622   2.366   1_565  S
Zr614       O633   2.434   1_455  S
Zr614       O626   2.434       .  S
Zr614       O627   2.491       .  S
Zr614       O620   2.401   1_554  S
Zr614       O621   2.389   1_455  S
Zr615       O617   2.436       .  S
Zr615       O639   2.437   1_655  S
Zr615       O641   2.479       .  S
Zr615       O619   2.387   1_655  S
Zr615       O622   2.376       .  S
Zr616       O642   2.437       .  S
Zr616       O643   2.434   1_545  S
Zr616       O618   2.435   1_545  S
Zr616       O619   2.411       .  S
Zr616       O620   2.395   1_545  S
O617        H654   0.990       .  S
O618        H649   0.990       .  S
O618        H663   0.990   1_556  S
O620        H646   0.965       .  S
O621       Zr631   2.378   1_565  S
O622       Zr631   2.384   1_556  S
O622        H647   0.967       .  S
C623       C1576   1.494       .  S
C624       C1624   1.461       .  S
C625       C1588   1.512       .  S
O626        H662   0.990       .  S
O627        C629   1.296   1_455  A
O628        C629   1.274   1_556  A
C629       C1564   1.488   1_554  S
O630       Zr631   2.440       .  S
O630        H659   0.990       .  S
Zr631       O634   2.437   1_545  S
Zr631       O635   2.438       .  S
Zr631       O636   2.407   1_545  S
O632        C637   1.279   1_556  A
O633        H650   0.990       .  S
O633        H665   0.990   1_655  S
O634        H651   0.990       .  S
O635        H655   0.990       .  S
O635        H664   0.990       .  S
O636        C637   1.278       .  A
C637       C2200   1.457   1_554  S
O638        H657   0.990       .  S
O638        H661   0.990   1_655  S
O639        H653   0.990   1_455  S
O639        H660   0.990       .  S
O640        C644   1.280   1_565  A
O641        C644   1.293       .  A
O642        H652   0.990       .  S
O643        H656   0.990       .  S
C644       C2404   1.493       .  S
Zr667       O668   2.446       .  S
Zr667       O669   2.426       .  S
Zr667       O670   2.448       .  S
Zr667       O673   2.399       .  S
Zr667       O675   2.375       .  S
Zr667       O676   2.390       .  S
Zr667       O677   2.400       .  S
Zr667       O678   2.402       .  S
O668        H724   0.991       .  S
O668        H732   0.991       .  S
O669        C689   1.282       .  A
O670        C691   1.283       .  A
O671       Zr681   2.454       .  S
O671        C690   1.289       .  A
O672       Zr680   2.496       .  S
O672        C691   1.296       .  A
O673        C690   1.278       .  A
O674       Zr682   2.424       .  S
O674        C689   1.281       .  A
O675       Zr680   2.406       .  S
O675       Zr682   2.387       .  S
O676       Zr681   2.402       .  S
O676       Zr682   2.375       .  S
O676        H711   0.966       .  S
O677       Zr680   2.408       .  S
O677       Zr697   2.391       .  S
O677        H714   0.966       .  S
O678       Zr681   2.401       .  S
O678       Zr697   2.375       .  S
Zr679       O704   2.444       .  S
Zr679       O698   2.449       .  S
Zr679       O706   2.426       .  S
Zr679       O694   2.391       .  S
Zr679       O685   2.397       .  S
Zr679       O686   2.415       .  S
Zr679       O687   2.381       .  S
Zr679       O688   2.372       .  S
Zr680       O699   2.435       .  S
Zr680       O692   2.435       .  S
Zr680       O693   2.493       .  S
Zr680       O686   2.412       .  S
Zr680       O687   2.407       .  S
Zr681       O683   2.434       .  S
Zr681       O705   2.436       .  S
Zr681       O707   2.490       .  S
Zr681       O685   2.386       .  S
Zr681       O688   2.393       .  S
Zr682       O708   2.437       .  S
Zr682       O709   2.435       .  S
Zr682       O684   2.437       .  S
Zr682       O685   2.402       .  S
Zr682       O686   2.393       .  S
O683        H720   0.990       .  S
O684        H715   0.990       .  S
O684        H729   0.990       .  S
O686        H712   0.965       .  S
O687       Zr697   2.381       .  S
O688       Zr697   2.383       .  S
O688        H713   0.969       .  S
C689       C1612   1.477       .  S
C690       C1549   1.467       .  S
C691       C1537   1.505       .  S
O692        H728   0.990       .  S
O693        C695   1.296       .  A
O694        C695   1.275       .  A
C695       C1513   1.488       .  S
O696       Zr697   2.439       .  S
O696        H725   0.990       .  S
Zr697       O700   2.436       .  S
Zr697       O701   2.441       .  S
Zr697       O702   2.399       .  S
O698        C703   1.286       .  A
O699        H716   0.990       .  S
O699        H731   0.990       .  S
O700        H717   0.990       .  S
O701        H721   0.990       .  S
O701        H730   0.990       .  S
O702        C703   1.278       .  A
C703       C1525   1.491       .  S
O704        H723   0.990       .  S
O704        H727   0.991       .  S
O705        H719   0.990       .  S
O705        H726   0.990       .  S
O706        C710   1.283       .  A
O707        C710   1.296       .  A
O708        H718   0.990       .  S
O709        H722   0.990       .  S
C710       C1504   1.520       .  S
C733        C734   1.533       .  S
C733        C739   1.544   1_545  S
C733        C737   1.536       .  S
C733       C1489   1.554   1_545  S
C734        H741   1.086       .  S
C734        C735   1.367       .  D
C735        C736   1.572       .  S
C735       C1540   1.525       .  S
C736        C740   1.562   1_545  S
C736        C738   1.552       .  S
C736        H742   1.109       .  S
C737        H743   1.086   1_545  S
C737        C738   1.369       .  D
C738       C1585   1.500       .  S
C739        H744   1.079       .  S
C739        C740   1.369       .  D
C740       C1885   1.519       .  S
Zr745       O746   2.443       .  S
Zr745       O747   2.442       .  S
Zr745       O748   2.419       .  S
Zr745       O751   2.400       .  S
Zr745       O753   2.375       .  S
Zr745       O754   2.378       .  S
Zr745       O755   2.402   1_545  S
Zr745       O756   2.403   1_545  S
O746        H802   0.990       .  S
O746        H810   0.990       .  S
O747        C767   1.285       .  A
O748        C769   1.280       .  A
O749       Zr759   2.461       .  S
O749        C768   1.290       .  A
O750       Zr758   2.487   1_655  S
O750        C769   1.295   1_565  A
O751        C768   1.279       .  A
O752       Zr760   2.405   1_655  S
O752        C767   1.278       .  A
O753       Zr758   2.404   1_645  S
O753       Zr760   2.387   1_655  S
O754       Zr759   2.396       .  S
O754       Zr760   2.366   1_655  S
O754        H789   0.967       .  S
O755       Zr758   2.405   1_655  S
O755       Zr775   2.391       .  S
O755        H792   0.965       .  S
O756       Zr759   2.401   1_565  S
O756       Zr775   2.397       .  S
Zr757       O782   2.442       .  S
Zr757       O776   2.433       .  S
Zr757       O784   2.420       .  S
Zr757       O772   2.406       .  S
Zr757       O763   2.395   1_565  S
Zr757       O764   2.403       .  S
Zr757       O765   2.382       .  S
Zr757       O766   2.377   1_455  S
Zr758       O777   2.435       .  S
Zr758       O770   2.433   1_565  S
Zr758       O771   2.480       .  S
Zr758       O764   2.405       .  S
Zr758       O765   2.406       .  S
Zr759       O761   2.434   1_545  S
Zr759       O783   2.438       .  S
Zr759       O785   2.467       .  S
Zr759       O763   2.398   1_655  S
Zr759       O766   2.399   1_545  S
Zr760       O786   2.435       .  S
Zr760       O787   2.434       .  S
Zr760       O762   2.436       .  S
Zr760       O763   2.392       .  S
Zr760       O764   2.378   1_545  S
O761        H798   0.990       .  S
O762        H793   0.990       .  S
O762        H807   0.990       .  S
O764        H790   0.961   1_565  S
O765       Zr775   2.383   1_455  S
O766       Zr775   2.383       .  S
O766        H791   0.966       .  S
C767       C1648   1.473       .  S
C768       C1948   1.486       .  S
C769       C2392   1.505       .  S
O770        H806   0.990       .  S
O771        C773   1.293       .  A
O772        C773   1.280       .  A
C773       C1840   1.482       .  S
O774       Zr775   2.437       .  S
O774        H803   0.990       .  S
Zr775       O778   2.435       .  S
Zr775       O779   2.441       .  S
Zr775       O780   2.418       .  S
O776        C781   1.282       .  A
O777        H794   0.990       .  S
O777        H809   0.990   1_455  S
O778        H795   0.990       .  S
O779        H799   0.990       .  S
O779        H808   0.990       .  S
O780        C781   1.279   1_655  A
C781       C1921   1.469       .  S
O782        H801   0.989       .  S
O782        H805   0.990       .  S
O783        H797   0.990       .  S
O783        H804   0.990       .  S
O784        C788   1.281       .  A
O785        C788   1.291   1_645  A
O786        H796   0.990       .  S
O787        H800   0.990       .  S
C788       C1492   1.499       .  S
C811        C812   1.538       .  S
C811        C817   1.536       .  S
C811        C815   1.517   1_556  S
C811       C1681   1.519       .  S
C812        H819   1.087       .  S
C812        C813   1.366   1_556  D
C813        C814   1.537       .  S
C813       C1573   1.487       .  S
C814        C818   1.534       .  S
C814        C816   1.548       .  S
C814        H820   1.109       .  S
C815        H821   1.087       .  S
C815        C816   1.356       .  D
C816       C1552   1.467       .  S
C817        H822   1.081       .  S
C817        C818   1.364   1_556  D
C818       C1480   1.476       .  S
Zr823       O824   2.444       .  S
Zr823       O825   2.429   1_556  S
Zr823       O826   2.466       .  S
Zr823       O829   2.428       .  S
Zr823       O831   2.381   1_546  S
Zr823       O832   2.392   1_556  S
Zr823       O833   2.403       .  S
Zr823       O834   2.404       .  S
O824        H880   0.991       .  S
O824        H888   0.991       .  S
O825        C845   1.283       .  A
O826        C847   1.288   1_545  A
O827       Zr837   2.439       .  S
O827        C846   1.286       .  A
O828       Zr836   2.473       .  S
O828        C847   1.292       .  A
O829        C846   1.284   1_556  A
O830       Zr838   2.390   1_545  S
O830        C845   1.274       .  A
O831       Zr836   2.404   1_554  S
O831       Zr838   2.399       .  S
O832       Zr837   2.398       .  S
O832       Zr838   2.382   1_545  S
O832        H867   0.966       .  S
O833       Zr836   2.400   1_545  S
O833       Zr853   2.387       .  S
O833        H870   0.965       .  S
O834       Zr837   2.393   1_556  S
O834       Zr853   2.384       .  S
Zr835       O860   2.444       .  S
Zr835       O854   2.418       .  S
Zr835       O862   2.434       .  S
Zr835       O850   2.420       .  S
Zr835       O841   2.394   1_565  S
Zr835       O842   2.408       .  S
Zr835       O843   2.382   1_554  S
Zr835       O844   2.380   1_565  S
Zr836       O855   2.437       .  S
Zr836       O848   2.433       .  S
Zr836       O849   2.452   1_556  S
Zr836       O842   2.414   1_556  S
Zr836       O843   2.400       .  S
Zr837       O839   2.435       .  S
Zr837       O861   2.436       .  S
Zr837       O863   2.453       .  S
Zr837       O841   2.387       .  S
Zr837       O844   2.394       .  S
Zr838       O864   2.436   1_565  S
Zr838       O865   2.438       .  S
Zr838       O840   2.438       .  S
Zr838       O841   2.388   1_565  S
Zr838       O842   2.368       .  S
O839        H876   0.990       .  S
O840        H871   0.990       .  S
O840        H885   0.990       .  S
O842        H868   0.964       .  S
O843       Zr853   2.377   1_565  S
O844       Zr853   2.381   1_554  S
O844        H869   0.964       .  S
C845       C1477   1.461       .  S
C846       C1708   1.479   1_554  S
C847       C2125   1.524       .  S
O848        H884   0.990       .  S
O849        C851   1.287       .  A
O850        C851   1.281       .  A
C851       C2173   1.468       .  S
O852       Zr853   2.439       .  S
O852        H881   0.990       .  S
Zr853       O856   2.438   1_545  S
Zr853       O857   2.439       .  S
Zr853       O858   2.406   1_545  S
O854        C859   1.280       .  A
O855        H872   0.990       .  S
O855        H887   0.990       .  S
O856        H873   0.990       .  S
O857        H877   0.990       .  S
O857        H886   0.990       .  S
O858        C859   1.280   1_556  A
C859       C2185   1.485       .  S
O860        H879   0.991       .  S
O860        H883   0.989       .  S
O861        H875   0.990       .  S
O861        H882   0.990       .  S
O862        C866   1.285   1_565  A
O863        C866   1.289       .  A
O864        H874   0.990       .  S
O865        H878   0.990       .  S
C866       C1741   1.499       .  S
Zr889       O890   2.444       .  S
Zr889       O891   2.442       .  S
Zr889       O892   2.438       .  S
Zr889       O895   2.381       .  S
Zr889       O897   2.371       .  S
Zr889       O898   2.384       .  S
Zr889       O899   2.398   1_545  S
Zr889       O900   2.407       .  S
O890        H946   0.991       .  S
O890        H954   0.990       .  S
O891        C911   1.286       .  A
O892        C913   1.283       .  A
O893       Zr903   2.487       .  S
O893        C912   1.294       .  A
O894       Zr902   2.493       .  S
O894        C913   1.296   1_565  A
O895        C912   1.275       .  A
O896       Zr904   2.399       .  S
O896        C911   1.278       .  A
O897       Zr902   2.400   1_545  S
O897       Zr904   2.388       .  S
O898       Zr903   2.389       .  S
O898       Zr904   2.379       .  S
O898        H933   0.966       .  S
O899       Zr902   2.399       .  S
O899       Zr919   2.395       .  S
O899        H936   0.965       .  S
O900       Zr903   2.402       .  S
O900       Zr919   2.392   1_545  S
Zr901       O926   2.443       .  S
Zr901       O920   2.419       .  S
Zr901       O928   2.428       .  S
Zr901       O916   2.403       .  S
Zr901       O907   2.388   1_565  S
Zr901       O908   2.402   1_565  S
Zr901       O909   2.385       .  S
Zr901       O910   2.380       .  S
Zr902       O921   2.434       .  S
Zr902       O914   2.434   1_565  S
Zr902       O915   2.469       .  S
Zr902       O908   2.411   1_565  S
Zr902       O909   2.396       .  S
Zr903       O905   2.436       .  S
Zr903       O927   2.436       .  S
Zr903       O929   2.501       .  S
Zr903       O907   2.396       .  S
Zr903       O910   2.392   1_545  S
Zr904       O930   2.435       .  S
Zr904       O931   2.435       .  S
Zr904       O906   2.438       .  S
Zr904       O907   2.395       .  S
Zr904       O908   2.385       .  S
O905        H942   0.990       .  S
O906        H937   0.990       .  S
O906        H951   0.990       .  S
O908        H934   0.967       .  S
O909       Zr919   2.368       .  S
O910       Zr919   2.380       .  S
O910        H935   0.966       .  S
C911       C1465   1.485       .  S
C912       C1960   1.475       .  S
C913       C1732   1.504       .  S
O914        H950   0.990       .  S
O915        C917   1.293       .  A
O916        C917   1.280       .  A
C917       C1852   1.479       .  S
O918       Zr919   2.436       .  S
O918        H947   0.990       .  S
Zr919       O922   2.437       .  S
Zr919       O923   2.439       .  S
Zr919       O924   2.428       .  S
O920        C925   1.282       .  A
O921        H938   0.990       .  S
O921        H953   0.990       .  S
O922        H939   0.990       .  S
O923        H943   0.990       .  S
O923        H952   0.990       .  S
O924        C925   1.283       .  A
C925       C1453   1.471       .  S
O926        H945   0.990   1_565  S
O926        H949   0.990   1_565  S
O927        H941   0.990       .  S
O927        H948   0.990       .  S
O928        C932   1.284   1_565  A
O929        C932   1.297       .  A
O930        H940   0.990       .  S
O931        H944   0.990       .  S
C932       C2140   1.504       .  S
C955        C956   1.537       .  S
C955        C961   1.545       .  S
C955        C959   1.533       .  S
C955       C1468   1.531       .  S
C956        H963   1.082       .  S
C956        C957   1.356       .  D
C957        C958   1.530       .  S
C957       C1768   1.470       .  S
C958        C962   1.531       .  S
C958        C960   1.532       .  S
C958        H964   1.111       .  S
C959        H965   1.086       .  S
C959        C960   1.366       .  D
C960       C1441   1.469       .  S
C961        H966   1.085       .  S
C961        C962   1.369       .  D
C962       C1528   1.482       .  S
Zr967       O968   2.444       .  S
Zr967       O969   2.423       .  S
Zr967       O970   2.427       .  S
Zr967       O973   2.395       .  S
Zr967       O975   2.374       .  S
Zr967       O976   2.387   1_554  S
Zr967       O977   2.397       .  S
Zr967       O978   2.393   1_655  S
O968       H1024   0.991       .  S
O968       H1032   0.991       .  S
O969        C989   1.281       .  A
O970        C991   1.282       .  A
O971       Zr981   2.455       .  S
O971        C990   1.289   1_456  A
O972       Zr980   2.490       .  S
O972        C991   1.294       .  A
O973        C990   1.278       .  A
O974       Zr982   2.439       .  S
O974        C989   1.284   1_556  A
O975       Zr980   2.410       .  S
O975       Zr982   2.384   1_554  S
O976       Zr981   2.405   1_655  S
O976       Zr982   2.375       .  S
O976       H1011   0.965       .  S
O977       Zr980   2.401       .  S
O977       Zr997   2.388   1_655  S
O977       H1014   0.965       .  S
O978       Zr981   2.396   1_554  S
O978       Zr997   2.374       .  S
Zr979      O1004   2.439       .  S
Zr979       O998   2.444       .  S
Zr979      O1006   2.449       .  S
Zr979       O994   2.401       .  S
Zr979       O985   2.399   1_455  S
Zr979       O986   2.414   1_455  S
Zr979       O987   2.384   1_556  S
Zr979       O988   2.373       .  S
Zr980       O999   2.433       .  S
Zr980       O992   2.433       .  S
Zr980       O993   2.473       .  S
Zr980       O986   2.408   1_554  S
Zr980       O987   2.401   1_655  S
Zr981       O983   2.435       .  S
Zr981      O1005   2.437   1_455  S
Zr981      O1007   2.469       .  S
Zr981       O985   2.399   1_455  S
Zr981       O988   2.396       .  S
Zr982      O1008   2.435       .  S
Zr982      O1009   2.437       .  S
Zr982       O984   2.437       .  S
Zr982       O985   2.408       .  S
Zr982       O986   2.394       .  S
O983       H1020   0.990       .  S
O984       H1015   0.990       .  S
O984       H1029   0.990       .  S
O986       H1012   0.965       .  S
O987       Zr997   2.378       .  S
O988       Zr997   2.389   1_556  S
O988       H1013   0.966       .  S
C989       C2080   1.500       .  S
C990       C1600   1.477       .  S
C991       C1801   1.510       .  S
O992       H1028   0.990       .  S
O993        C995   1.293   1_554  A
O994        C995   1.278   1_455  A
C995       C1429   1.498       .  S
O996       Zr997   2.435       .  S
O996       H1025   0.990       .  S
Zr997      O1000   2.436       .  S
Zr997      O1001   2.437       .  S
Zr997      O1002   2.404       .  S
O998       C1003   1.285       .  A
O999       H1016   0.990       .  S
O999       H1031   0.990   1_655  S
O1000      H1017   0.990       .  S
O1001      H1021   0.990       .  S
O1001      H1030   0.989       .  S
O1002      C1003   1.280   1_554  A
C1003      C2032   1.495       .  S
O1004      H1023   0.989       .  S
O1004      H1027   0.989       .  S
O1005      H1019   0.990       .  S
O1005      H1026   0.990       .  S
O1006      C1010   1.286       .  A
O1007      C1010   1.291       .  A
O1008      H1018   0.990       .  S
O1009      H1022   0.990       .  S
C1010      C2008   1.510       .  S
Zr1033     O1034   2.442       .  S
Zr1033     O1035   2.431       .  S
Zr1033     O1036   2.433       .  S
Zr1033     O1039   2.396   1_554  S
Zr1033     O1041   2.370       .  S
Zr1033     O1042   2.385   1_554  S
Zr1033     O1043   2.392       .  S
Zr1033     O1044   2.400   1_554  S
O1034      H1090   0.990       .  S
O1034      H1098   0.990       .  S
O1035      C1055   1.283       .  A
O1036      C1057   1.284       .  A
O1037     Zr1047   2.433       .  S
O1037      C1056   1.282       .  A
O1038     Zr1046   2.448       .  S
O1038      C1057   1.287       .  A
O1039      C1056   1.278       .  A
O1040     Zr1048   2.402   1_554  S
O1040      C1055   1.278       .  A
O1041     Zr1046   2.387       .  S
O1041     Zr1048   2.378   1_554  S
O1042     Zr1047   2.398       .  S
O1042     Zr1048   2.374       .  S
O1042      H1077   0.966       .  S
O1043     Zr1046   2.394       .  S
O1043     Zr1063   2.386   1_554  S
O1043      H1080   0.966       .  S
O1044     Zr1047   2.399       .  S
O1044     Zr1063   2.391       .  S
Zr1045     O1070   2.444       .  S
Zr1045     O1064   2.430       .  S
Zr1045     O1072   2.432       .  S
Zr1045     O1060   2.421       .  S
Zr1045     O1051   2.394       .  S
Zr1045     O1052   2.412       .  S
Zr1045     O1053   2.376       .  S
Zr1045     O1054   2.382       .  S
Zr1046     O1065   2.435       .  S
Zr1046     O1058   2.435       .  S
Zr1046     O1059   2.418       .  S
Zr1046     O1052   2.407   1_554  S
Zr1046     O1053   2.399   1_554  S
Zr1047     O1049   2.436       .  S
Zr1047     O1071   2.439       .  S
Zr1047     O1073   2.443       .  S
Zr1047     O1051   2.389       .  S
Zr1047     O1054   2.394       .  S
Zr1048     O1074   2.435       .  S
Zr1048     O1075   2.434       .  S
Zr1048     O1050   2.436   1_556  S
Zr1048     O1051   2.386       .  S
Zr1048     O1052   2.381       .  S
O1049      H1086   0.990       .  S
O1050      H1081   0.990       .  S
O1050      H1095   0.990       .  S
O1052      H1078   0.963   1_556  S
O1053     Zr1063   2.374       .  S
O1054     Zr1063   2.388       .  S
O1054      H1079   0.966       .  S
C1055      C2161   1.466       .  S
C1056      C2044   1.455       .  S
C1057      C1417   1.494       .  S
O1058      H1094   0.990       .  S
O1059      C1061   1.281       .  A
O1060      C1061   1.282   1_556  A
C1061      C2092   1.458       .  S
O1062     Zr1063   2.439   1_554  S
O1062      H1091   0.990       .  S
Zr1063     O1066   2.439   1_556  S
Zr1063     O1067   2.438       .  S
Zr1063     O1068   2.394       .  S
O1064      C1069   1.279       .  A
O1065      H1082   0.990       .  S
O1065      H1097   0.990       .  S
O1066      H1083   0.990       .  S
O1067      H1087   0.990       .  S
O1067      H1096   0.990       .  S
O1068      C1069   1.276       .  A
C1069      C1696   1.459       .  S
O1070      H1089   0.990       .  S
O1070      H1093   0.990       .  S
O1071      H1085   0.990       .  S
O1071      H1092   0.990       .  S
O1072      C1076   1.284       .  A
O1073      C1076   1.286       .  A
O1074      H1084   0.990       .  S
O1075      H1088   0.990       .  S
C1076      C2308   1.489       .  S
Zr1099     O1100   2.442       .  S
Zr1099     O1101   2.437       .  S
Zr1099     O1102   2.426       .  S
Zr1099     O1105   2.403       .  S
Zr1099     O1107   2.371   1_655  S
Zr1099     O1108   2.383       .  S
Zr1099     O1109   2.404   1_655  S
Zr1099     O1110   2.403       .  S
O1100      H1156   0.991       .  S
O1100      H1164   0.990       .  S
O1101      C1121   1.284       .  A
O1102      C1123   1.282   1_655  A
O1103     Zr1113   2.462       .  S
O1103      C1122   1.289       .  A
O1104     Zr1112   2.472       .  S
O1104      C1123   1.292       .  A
O1105      C1122   1.280       .  A
O1106     Zr1114   2.432       .  S
O1106      C1121   1.282       .  A
O1107     Zr1112   2.393       .  S
O1107     Zr1114   2.378   1_455  S
O1108     Zr1113   2.403       .  S
O1108     Zr1114   2.374       .  S
O1108      H1143   0.968       .  S
O1109     Zr1112   2.402       .  S
O1109     Zr1129   2.399   1_455  S
O1109      H1146   0.966       .  S
O1110     Zr1113   2.397       .  S
O1110     Zr1129   2.399       .  S
Zr1111     O1136   2.443       .  S
Zr1111     O1130   2.464       .  S
Zr1111     O1138   2.418       .  S
Zr1111     O1126   2.411       .  S
Zr1111     O1117   2.406   1_455  S
Zr1111     O1118   2.411       .  S
Zr1111     O1119   2.377       .  S
Zr1111     O1120   2.371   1_455  S
Zr1112     O1131   2.434       .  S
Zr1112     O1124   2.437       .  S
Zr1112     O1125   2.451       .  S
Zr1112     O1118   2.405       .  S
Zr1112     O1119   2.409       .  S
Zr1113     O1115   2.438       .  S
Zr1113     O1137   2.436       .  S
Zr1113     O1139   2.466       .  S
Zr1113     O1117   2.396       .  S
Zr1113     O1120   2.396       .  S
Zr1114     O1140   2.437       .  S
Zr1114     O1141   2.434   1_655  S
Zr1114     O1116   2.436   1_655  S
Zr1114     O1117   2.403       .  S
Zr1114     O1118   2.387   1_655  S
O1115      H1152   0.990       .  S
O1116      H1147   0.990       .  S
O1116      H1161   0.990       .  S
O1118      H1144   0.966       .  S
O1119     Zr1129   2.378   1_455  S
O1120     Zr1129   2.374       .  S
O1120      H1145   0.964       .  S
C1121      C1792   1.481       .  S
C1122      C2284   1.475       .  S
C1123      C1912   1.496       .  S
O1124      H1160   0.990       .  S
O1125      C1127   1.287       .  A
O1126      C1127   1.282       .  A
C1127      C1405   1.470       .  S
O1128     Zr1129   2.438       .  S
O1128      H1157   0.990       .  S
Zr1129     O1132   2.436   1_655  S
Zr1129     O1133   2.438       .  S
Zr1129     O1134   2.437   1_655  S
O1130      C1135   1.289       .  A
O1131      H1148   0.990       .  S
O1131      H1163   0.990       .  S
O1132      H1149   0.990       .  S
O1133      H1153   0.990       .  S
O1133      H1162   0.990       .  S
O1134      C1135   1.285       .  A
C1135      C1993   1.511       .  S
O1136      H1155   0.991       .  S
O1136      H1159   0.990       .  S
O1137      H1151   0.990       .  S
O1137      H1158   0.990       .  S
O1138      C1142   1.281   1_455  A
O1139      C1142   1.290       .  A
O1140      H1150   0.990       .  S
O1141      H1154   0.990       .  S
C1142      C1633   1.497       .  S
C1165      C1166   1.538       .  S
C1165      C1171   1.528       .  S
C1165      C1169   1.525       .  S
C1165      C1672   1.524       .  S
C1166      H1173   1.080       .  S
C1166      C1167   1.365       .  D
C1167      C1168   1.550       .  S
C1167      C1408   1.490       .  S
C1168      C1172   1.552       .  S
C1168      C1170   1.559       .  S
C1168      H1174   1.110       .  S
C1169      H1175   1.087       .  S
C1169      C1170   1.360       .  D
C1170      C1516   1.487       .  S
C1171      H1176   1.087       .  S
C1171      C1172   1.358       .  D
C1172      C1396   1.493       .  S
Zr1177     O1178   2.444       .  S
Zr1177     O1179   2.439       .  S
Zr1177     O1180   2.441       .  S
Zr1177     O1183   2.394       .  S
Zr1177     O1185   2.375       .  S
Zr1177     O1186   2.387       .  S
Zr1177     O1187   2.401       .  S
Zr1177     O1188   2.409       .  S
O1178      H1234   0.991       .  S
O1178      H1242   0.991       .  S
O1179      C1199   1.284       .  A
O1180      C1201   1.282       .  A
O1181     Zr1191   2.475       .  S
O1181      C1200   1.293       .  A
O1182     Zr1190   2.487       .  S
O1182      C1201   1.294       .  A
O1183      C1200   1.277       .  A
O1184     Zr1192   2.409       .  S
O1184      C1199   1.279       .  A
O1185     Zr1190   2.406       .  S
O1185     Zr1192   2.391       .  S
O1186     Zr1191   2.399       .  S
O1186     Zr1192   2.372       .  S
O1186      H1221   0.966       .  S
O1187     Zr1190   2.401       .  S
O1187     Zr1207   2.396       .  S
O1187      H1224   0.967       .  S
O1188     Zr1191   2.404       .  S
O1188     Zr1207   2.394       .  S
Zr1189     O1214   2.448       .  S
Zr1189     O1208   2.435       .  S
Zr1189     O1216   2.416       .  S
Zr1189     O1204   2.391       .  S
Zr1189     O1195   2.396       .  S
Zr1189     O1196   2.404       .  S
Zr1189     O1197   2.382       .  S
Zr1189     O1198   2.376       .  S
Zr1190     O1209   2.435       .  S
Zr1190     O1202   2.436       .  S
Zr1190     O1203   2.476       .  S
Zr1190     O1196   2.404       .  S
Zr1190     O1197   2.398       .  S
Zr1191     O1193   2.435       .  S
Zr1191     O1215   2.434       .  S
Zr1191     O1217   2.497       .  S
Zr1191     O1195   2.385       .  S
Zr1191     O1198   2.394       .  S
Zr1192     O1218   2.437       .  S
Zr1192     O1219   2.437       .  S
Zr1192     O1194   2.433       .  S
Zr1192     O1195   2.394       .  S
Zr1192     O1196   2.378       .  S
O1193      H1230   0.990       .  S
O1194      H1225   0.990       .  S
O1194      H1239   0.990       .  S
O1196      H1222   0.963       .  S
O1197     Zr1207   2.375       .  S
O1198     Zr1207   2.380       .  S
O1198      H1223   0.968       .  S
C1199      C1444   1.481       .  S
C1200      C1393   1.476       .  S
C1201      C1381   1.501       .  S
O1202      H1238   0.990       .  S
O1203      C1205   1.294       .  A
O1204      C1205   1.278       .  A
C1205      C2269   1.477       .  S
O1206     Zr1207   2.436       .  S
O1206      H1235   0.990       .  S
Zr1207     O1210   2.436       .  S
Zr1207     O1211   2.440       .  S
Zr1207     O1212   2.427       .  S
O1208      C1213   1.286       .  A
O1209      H1226   0.990       .  S
O1209      H1241   0.990       .  S
O1210      H1227   0.990       .  S
O1211      H1231   0.989       .  S
O1211      H1240   0.990       .  S
O1212      C1213   1.282       .  A
C1213      C1369   1.502       .  S
O1214      H1233   0.990       .  S
O1214      H1237   0.990       .  S
O1215      H1229   0.990       .  S
O1215      H1236   0.990       .  S
O1216      C1220   1.281       .  A
O1217      C1220   1.297       .  A
O1218      H1228   0.990       .  S
O1219      H1232   0.990       .  S
C1220      C2320   1.498       .  S
C1243      C1244   1.544       .  S
C1243      C1249   1.534       .  S
C1243      C1247   1.540       .  S
C1243      C1420   1.553       .  S
C1244      H1251   1.079       .  S
C1244      C1245   1.358       .  D
C1245      C1246   1.556       .  S
C1245      C1876   1.502       .  S
C1246      C1250   1.570       .  S
C1246      C1248   1.561       .  S
C1246      H1252   1.110       .  S
C1247      H1253   1.086       .  S
C1247      C1248   1.370       .  D
C1248      C1384   1.511       .  S
C1249      H1254   1.086       .  S
C1249      C1250   1.368       .  D
C1250      C1501   1.516       .  S
C1255      C1256   1.556       .  S
C1255      C1261   1.539   1_655  S
C1255      C1259   1.525       .  S
C1255      C1561   1.551       .  S
C1256      H1263   1.081       .  S
C1256      C1257   1.376       .  D
C1257      C1258   1.548       .  S
C1257      C2488   1.505       .  S
C1258      C1262   1.563   1_655  S
C1258      C1260   1.549       .  S
C1258      H1264   1.104       .  S
C1259      H1265   1.087       .  S
C1259      C1260   1.358       .  D
C1260      C1432   1.492       .  S
C1261      H1266   1.084       .  S
C1261      C1262   1.371       .  D
C1262      C1360   1.526       .  S
Zr1267     O1268   2.441       .  S
Zr1267     O1269   2.424       .  S
Zr1267     O1270   2.406       .  S
Zr1267     O1273   2.394       .  S
Zr1267     O1275   2.379       .  S
Zr1267     O1276   2.384       .  S
Zr1267     O1277   2.398       .  S
Zr1267     O1278   2.399       .  S
O1268      H1324   0.991       .  S
O1268      H1332   0.990       .  S
O1269      C1289   1.280       .  A
O1270      C1291   1.280       .  A
O1271     Zr1281   2.507       .  S
O1271      C1290   1.298       .  A
O1272     Zr1280   2.466       .  S
O1272      C1291   1.291       .  A
O1273      C1290   1.277       .  A
O1274     Zr1282   2.399       .  S
O1274      C1289   1.277       .  A
O1275     Zr1280   2.402       .  S
O1275     Zr1282   2.381       .  S
O1276     Zr1281   2.390       .  S
O1276     Zr1282   2.373       .  S
O1276      H1311   0.967       .  S
O1277     Zr1280   2.410       .  S
O1277     Zr1297   2.391       .  S
O1277      H1314   0.964       .  S
O1278     Zr1281   2.389       .  S
O1278     Zr1297   2.394       .  S
Zr1279     O1304   2.446       .  S
Zr1279     O1298   2.439       .  S
Zr1279     O1306   2.403       .  S
Zr1279     O1294   2.434       .  S
Zr1279     O1285   2.404       .  S
Zr1279     O1286   2.405       .  S
Zr1279     O1287   2.376       .  S
Zr1279     O1288   2.394       .  S
Zr1280     O1299   2.434       .  S
Zr1280     O1292   2.435       .  S
Zr1280     O1293   2.475       .  S
Zr1280     O1286   2.403       .  S
Zr1280     O1287   2.405       .  S
Zr1281     O1283   2.435       .  S
Zr1281     O1305   2.436       .  S
Zr1281     O1307   2.468       .  S
Zr1281     O1285   2.399       .  S
Zr1281     O1288   2.410       .  S
Zr1282     O1308   2.436       .  S
Zr1282     O1309   2.436       .  S
Zr1282     O1284   2.437       .  S
Zr1282     O1285   2.378       .  S
Zr1282     O1286   2.385       .  S
O1283      H1320   0.990       .  S
O1284      H1315   0.990       .  S
O1284      H1329   0.990       .  S
O1286      H1312   0.966       .  S
O1287     Zr1297   2.391       .  S
O1288     Zr1297   2.382       .  S
O1288      H1313   0.966       .  S
C1289      C2020   1.456       .  S
C1290      C1357   1.498       .  S
C1291      C1972   1.488       .  S
O1292      H1328   0.990       .  S
O1293      C1295   1.291       .  A
O1294      C1295   1.282       .  A
C1295      C1345   1.493       .  S
O1296     Zr1297   2.437       .  S
O1296      H1325   0.990       .  S
Zr1297     O1300   2.436       .  S
Zr1297     O1301   2.440       .  S
Zr1297     O1302   2.404       .  S
O1298      C1303   1.282       .  A
O1299      H1316   0.990       .  S
O1299      H1331   0.990       .  S
O1300      H1317   0.990       .  S
O1301      H1321   0.990       .  S
O1301      H1330   0.990       .  S
O1302      C1303   1.279       .  A
C1303      C1828   1.489       .  S
O1304      H1323   0.991       .  S
O1304      H1327   0.991       .  S
O1305      H1319   0.990       .  S
O1305      H1326   0.990       .  S
O1306      C1310   1.279       .  A
O1307      C1310   1.291       .  A
O1308      H1318   0.990       .  S
O1309      H1322   0.990       .  S
C1310      C2104   1.486       .  S
C1333      C1334   1.525       .  S
C1333      C1339   1.530       .  S
C1333      C1337   1.554       .  S
C1333      C1456   1.535       .  S
C1334      H1341   1.088       .  S
C1334      C1335   1.355       .  D
C1335      C1336   1.556       .  S
C1335      C2452   1.494       .  S
C1336      C1340   1.552       .  S
C1336      C1338   1.540       .  S
C1336      H1342   1.110       .  S
C1337      H1343   1.082       .  S
C1337      C1338   1.376       .  D
C1338      C1372   1.492       .  S
C1339      H1344   1.087       .  S
C1339      C1340   1.362       .  D
C1340      C1348   1.493       .  S
C1345      C1346   1.409       .  A
C1345      C1350   1.411       .  A
C1346      C1347   1.405       .  A
C1346      H1351   1.085       .  S
C1347      C1348   1.407       .  A
C1347      C1354   1.443       .  S
C1348      C1349   1.409       .  A
C1349      C1350   1.411       .  A
C1349      H1352   1.084       .  S
C1350      C1353   1.443       .  S
C1353      N1355   1.157       .  T
C1354      N1356   1.157       .  T
C1357      C1358   1.409       .  A
C1357      C1362   1.406       .  A
C1358      C1359   1.411       .  A
C1358      H1363   1.085       .  S
C1359      C1360   1.421       .  A
C1359      C1366   1.441       .  S
C1360      C1361   1.420       .  A
C1361      C1362   1.407       .  A
C1361      H1364   1.082       .  S
C1362      C1365   1.443       .  S
C1365      N1367   1.157       .  T
C1366      N1368   1.158       .  T
C1369      C1370   1.409       .  A
C1369      C1374   1.423       .  A
C1370      C1371   1.402       .  A
C1370      H1375   1.084       .  S
C1371      C1372   1.411       .  A
C1371      C1378   1.442       .  S
C1372      C1373   1.403       .  A
C1373      C1374   1.403       .  A
C1373      H1376   1.085       .  S
C1374      C1377   1.445       .  S
C1377      N1379   1.158       .  T
C1378      N1380   1.157       .  T
C1381      C1382   1.404       .  A
C1381      C1386   1.415       .  A
C1382      C1383   1.410       .  A
C1382      H1387   1.085       .  S
C1383      C1384   1.417       .  A
C1383      C1390   1.442       .  S
C1384      C1385   1.408       .  A
C1385      C1386   1.416       .  A
C1385      H1388   1.084       .  S
C1386      C1389   1.443       .  S
C1389      N1391   1.157       .  T
C1390      N1392   1.157       .  T
C1393      C1394   1.404       .  A
C1393      C1398   1.407       .  A
C1394      C1395   1.402       .  A
C1394      H1399   1.085       .  S
C1395      C1396   1.412       .  A
C1395      C1402   1.441       .  S
C1396      C1397   1.411       .  A
C1397      C1398   1.403       .  A
C1397      H1400   1.085       .  S
C1398      C1401   1.444       .  S
C1401      N1403   1.157       .  T
C1402      N1404   1.157       .  T
C1405      C1406   1.405       .  A
C1405      C1410   1.405       .  A
C1406      C1407   1.406       .  A
C1406      H1411   1.085       .  S
C1407      C1408   1.410       .  A
C1407      C1414   1.442       .  S
C1408      C1409   1.410       .  A
C1409      C1410   1.397       .  A
C1409      H1412   1.085       .  S
C1410      C1413   1.446       .  S
C1413      N1415   1.157       .  T
C1414      N1416   1.157       .  T
C1417      C1418   1.405       .  A
C1417      C1422   1.412       .  A
C1418      C1419   1.409       .  A
C1418      H1423   1.085       .  S
C1419      C1420   1.423       .  A
C1419      C1426   1.443       .  S
C1420      C1421   1.413       .  A
C1421      C1422   1.399       .  A
C1421      H1424   1.074       .  S
C1422      C1425   1.445       .  S
C1425      N1427   1.157       .  T
C1426      N1428   1.157       .  T
C1429      C1430   1.416   1_655  A
C1429      C1434   1.413       .  A
C1430      C1431   1.402       .  A
C1430      H1435   1.084       .  S
C1431      C1432   1.406   1_455  A
C1431      C1438   1.444       .  S
C1432      C1433   1.409       .  A
C1433      C1434   1.404       .  A
C1433      H1436   1.084       .  S
C1434      C1437   1.443   1_556  S
C1437      N1439   1.157       .  T
C1438      N1440   1.157       .  T
C1441      C1442   1.397       .  A
C1441      C1446   1.406       .  A
C1442      C1443   1.398       .  A
C1442      H1447   1.084       .  S
C1443      C1444   1.417       .  A
C1443      C1450   1.444       .  S
C1444      C1445   1.407       .  A
C1445      C1446   1.399       .  A
C1445      H1448   1.085       .  S
C1446      C1449   1.444       .  S
C1449      N1451   1.157       .  T
C1450      N1452   1.157       .  T
C1453      C1454   1.395       .  A
C1453      C1458   1.408       .  A
C1454      C1455   1.396       .  A
C1454      H1459   1.086       .  S
C1455      C1456   1.427       .  A
C1455      C1462   1.446       .  S
C1456      C1457   1.411       .  A
C1457      C1458   1.402       .  A
C1457      H1460   1.078       .  S
C1458      C1461   1.445       .  S
C1461      N1463   1.157       .  T
C1462      N1464   1.157       .  T
C1465      C1466   1.410       .  A
C1465      C1470   1.412       .  A
C1466      C1467   1.396       .  A
C1466      H1471   1.084       .  S
C1467      C1468   1.411       .  A
C1467      C1474   1.445       .  S
C1468      C1469   1.412       .  A
C1469      C1470   1.397       .  A
C1469      H1472   1.080       .  S
C1470      C1473   1.446       .  S
C1473      N1475   1.158       .  T
C1474      N1476   1.157       .  T
C1477      C1478   1.405       .  A
C1477      C1482   1.404       .  A
C1478      C1479   1.399       .  A
C1478      H1483   1.085       .  S
C1479      C1480   1.406       .  A
C1479      C1486   1.443       .  S
C1480      C1481   1.407       .  A
C1481      C1482   1.390       .  A
C1481      H1484   1.085   1_554  S
C1482      C1485   1.446   1_554  S
C1485      N1487   1.157       .  T
C1486      N1488   1.157       .  T
C1489      C1490   1.410       .  A
C1489      C1494   1.424   1_565  A
C1490      C1491   1.401       .  A
C1490      H1495   1.077       .  S
C1491      C1492   1.417       .  A
C1491      C1498   1.446       .  S
C1492      C1493   1.405   1_565  A
C1493      C1494   1.411       .  A
C1493      H1496   1.084       .  S
C1494      C1497   1.444       .  S
C1497      N1499   1.157       .  T
C1498      N1500   1.157       .  T
C1501      C1502   1.413       .  A
C1501      C1506   1.411       .  A
C1502      C1503   1.413       .  A
C1502      H1507   1.085       .  S
C1503      C1504   1.418       .  A
C1503      C1510   1.443       .  S
C1504      C1505   1.417       .  A
C1505      C1506   1.413       .  A
C1505      H1508   1.084       .  S
C1506      C1509   1.442       .  S
C1509      N1511   1.157       .  T
C1510      N1512   1.157       .  T
C1513      C1514   1.405       .  A
C1513      C1518   1.420       .  A
C1514      C1515   1.409       .  A
C1514      H1519   1.084       .  S
C1515      C1516   1.415       .  A
C1515      C1522   1.444       .  S
C1516      C1517   1.397       .  A
C1517      C1518   1.402       .  A
C1517      H1520   1.085       .  S
C1518      C1521   1.444       .  S
C1521      N1523   1.157       .  T
C1522      N1524   1.157       .  T
C1525      C1526   1.410       .  A
C1525      C1530   1.416       .  A
C1526      C1527   1.395       .  A
C1526      H1531   1.084       .  S
C1527      C1528   1.408       .  A
C1527      C1534   1.445       .  S
C1528      C1529   1.404       .  A
C1529      C1530   1.403       .  A
C1529      H1532   1.084       .  S
C1530      C1533   1.444       .  S
C1533      N1535   1.157       .  T
C1534      N1536   1.157       .  T
C1537      C1538   1.412       .  A
C1537      C1542   1.409       .  A
C1538      C1539   1.419       .  A
C1538      H1543   1.084       .  S
C1539      C1540   1.415       .  A
C1539      C1546   1.442       .  S
C1540      C1541   1.417       .  A
C1541      C1542   1.411       .  A
C1541      H1544   1.084       .  S
C1542      C1545   1.444       .  S
C1545      N1547   1.157       .  T
C1546      N1548   1.157       .  T
C1549      C1550   1.405       .  A
C1549      C1554   1.411       .  A
C1550      C1551   1.398       .  A
C1550      H1555   1.085       .  S
C1551      C1552   1.407       .  A
C1551      C1558   1.445       .  S
C1552      C1553   1.399       .  A
C1553      C1554   1.398       .  A
C1553      H1556   1.085       .  S
C1554      C1557   1.443       .  S
C1557      N1559   1.157       .  T
C1558      N1560   1.157       .  T
C1561      C1562   1.419   1_655  A
C1561      C1566   1.420       .  A
C1562      C1563   1.403       .  A
C1562      H1567   1.084       .  S
C1563      C1564   1.406   1_455  A
C1563      C1570   1.444       .  S
C1564      C1565   1.409       .  A
C1565      C1566   1.408       .  A
C1565      H1568   1.085       .  S
C1566      C1569   1.442       .  S
C1569      N1571   1.158       .  T
C1570      N1572   1.157   1_556  T
C1573      C1574   1.405   1_554  A
C1573      C1578   1.408       .  A
C1574      C1575   1.397       .  A
C1574      H1579   1.085       .  S
C1575      C1576   1.417   1_556  A
C1575      C1582   1.444       .  S
C1576      C1577   1.411       .  A
C1577      C1578   1.401       .  A
C1577      H1580   1.082       .  S
C1578      C1581   1.443       .  S
C1581      N1583   1.157       .  T
C1582      N1584   1.157       .  T
C1585      C1586   1.400       .  A
C1585      C1590   1.415   1_545  A
C1586      C1587   1.409       .  A
C1586      H1591   1.085       .  S
C1587      C1588   1.427       .  A
C1587      C1594   1.443       .  S
C1588      C1589   1.409   1_545  A
C1589      C1590   1.408       .  A
C1589      H1592   1.084       .  S
C1590      C1593   1.444       .  S
C1593      N1595   1.157       .  T
C1594      N1596   1.157       .  T
C1597      C1598   1.392   1_455  A
C1597      C1602   1.412       .  A
C1598      C1599   1.392       .  A
C1598      H1603   1.085       .  S
C1599      C1600   1.418       .  A
C1599      C1606   1.443       .  S
C1600      C1601   1.404   1_655  A
C1601      C1602   1.401       .  A
C1601      H1604   1.085       .  S
C1602      C1605   1.445       .  S
C1605      N1607   1.157       .  T
C1606      N1608   1.156       .  T
C1609      C1610   1.405       .  A
C1609      C1614   1.411       .  A
C1610      C1611   1.398       .  A
C1610      H1615   1.085       .  S
C1611      C1612   1.410       .  A
C1611      C1618   1.444       .  S
C1612      C1613   1.405       .  A
C1613      C1614   1.401       .  A
C1613      H1616   1.085       .  S
C1614      C1617   1.444       .  S
C1617      N1619   1.157       .  T
C1618      N1620   1.157       .  T
C1621      C1622   1.407       .  A
C1621      C1626   1.421   1_455  A
C1622      C1623   1.390       .  A
C1622      H1627   1.081       .  S
C1623      C1624   1.407       .  A
C1623      C1630   1.444       .  S
C1624      C1625   1.397   1_455  A
C1625      C1626   1.396       .  A
C1625      H1628   1.085   1_554  S
C1626      C1629   1.443       .  S
C1629      N1631   1.157       .  T
C1630      N1632   1.157       .  T
C1633      C1634   1.406       .  A
C1633      C1638   1.419   1_655  A
C1634      C1635   1.409       .  A
C1634      H1639   1.085       .  S
C1635      C1636   1.419       .  A
C1635      C1642   1.444       .  S
C1636      C1637   1.401   1_655  A
C1637      C1638   1.400       .  A
C1637      H1640   1.084       .  S
C1638      C1641   1.444       .  S
C1641      N1643   1.157       .  T
C1642      N1644   1.157       .  T
C1645      C1646   1.409       .  A
C1645      C1650   1.428       .  A
C1646      C1647   1.401       .  A
C1646      H1651   1.078       .  S
C1647      C1648   1.409       .  A
C1647      C1654   1.444       .  S
C1648      C1649   1.395       .  A
C1649      C1650   1.398       .  A
C1649      H1652   1.085       .  S
C1650      C1653   1.446       .  S
C1653      N1655   1.157       .  T
C1654      N1656   1.157       .  T
C1657      C1658   1.407       .  A
C1657      C1662   1.411       .  A
C1658      C1659   1.400       .  A
C1658      H1663   1.085       .  S
C1659      C1660   1.407       .  A
C1659      C1666   1.444       .  S
C1660      C1661   1.405       .  A
C1661      C1662   1.406       .  A
C1661      H1664   1.084       .  S
C1662      C1665   1.443       .  S
C1665      N1667   1.157       .  T
C1666      N1668   1.157       .  T
C1669      C1670   1.401       .  A
C1669      C1674   1.416       .  A
C1670      C1671   1.391       .  A
C1670      H1675   1.085       .  S
C1671      C1672   1.420       .  A
C1671      C1678   1.447       .  S
C1672      C1673   1.407       .  A
C1673      C1674   1.393       .  A
C1673      H1676   1.075       .  S
C1674      C1677   1.447       .  S
C1677      N1679   1.157       .  T
C1678      N1680   1.157       .  T
C1681      C1682   1.411       .  A
C1681      C1686   1.415       .  A
C1682      C1683   1.395       .  A
C1682      H1687   1.077       .  S
C1683      C1684   1.410       .  A
C1683      C1690   1.445       .  S
C1684      C1685   1.406       .  A
C1685      C1686   1.387       .  A
C1685      H1688   1.085       .  S
C1686      C1689   1.447       .  S
C1689      N1691   1.157       .  T
C1690      N1692   1.157       .  T
C1693      C1694   1.409       .  A
C1693      C1698   1.416       .  A
C1694      C1695   1.401       .  A
C1694      H1699   1.085       .  S
C1695      C1696   1.405       .  A
C1695      C1702   1.444       .  S
C1696      C1697   1.394       .  A
C1697      C1698   1.392       .  A
C1697      H1700   1.086       .  S
C1698      C1701   1.440       .  S
C1701      N1703   1.157       .  T
C1702      N1704   1.157       .  T
C1705      C1706   1.412       .  A
C1705      C1710   1.420       .  A
C1706      C1707   1.401       .  A
C1706      H1711   1.083       .  S
C1707      C1708   1.409       .  A
C1707      C1714   1.443       .  S
C1708      C1709   1.402       .  A
C1709      C1710   1.401       .  A
C1709      H1712   1.085       .  S
C1710      C1713   1.442       .  S
C1713      N1715   1.157       .  T
C1714      N1716   1.157   1_556  T
C1717      C1718   1.401       .  A
C1717      C1722   1.417       .  A
C1718      C1719   1.407       .  A
C1718      H1723   1.084       .  S
C1719      C1720   1.415       .  A
C1719      C1726   1.443       .  S
C1720      C1721   1.400       .  A
C1721      C1722   1.404       .  A
C1721      H1724   1.085       .  S
C1722      C1725   1.444       .  S
C1725      N1727   1.157       .  T
C1726      N1728   1.157       .  T
C1729      C1730   1.417   1_545  A
C1729      C1734   1.428       .  A
C1730      C1731   1.412       .  A
C1730      H1735   1.079       .  S
C1731      C1732   1.411   1_565  A
C1731      C1738   1.443       .  S
C1732      C1733   1.406       .  A
C1733      C1734   1.414       .  A
C1733      H1736   1.085       .  S
C1734      C1737   1.443       .  S
C1737      N1739   1.157       .  T
C1738      N1740   1.157       .  T
C1741      C1742   1.407       .  A
C1741      C1746   1.419   1_545  A
C1742      C1743   1.406       .  A
C1742      H1747   1.084       .  S
C1743      C1744   1.415       .  A
C1743      C1750   1.443       .  S
C1744      C1745   1.402   1_545  A
C1745      C1746   1.403       .  A
C1745      H1748   1.084       .  S
C1746      C1749   1.441       .  S
C1749      N1751   1.156       .  T
C1750      N1752   1.157       .  T
C1753      C1754   1.409       .  A
C1753      C1758   1.411       .  A
C1754      C1755   1.414       .  A
C1754      H1759   1.084       .  S
C1755      C1756   1.414       .  A
C1755      C1762   1.443       .  S
C1756      C1757   1.405       .  A
C1757      C1758   1.401       .  A
C1757      H1760   1.084       .  S
C1758      C1761   1.444       .  S
C1761      N1763   1.157       .  T
C1762      N1764   1.157       .  T
C1765      C1766   1.399       .  A
C1765      C1770   1.414       .  A
C1766      C1767   1.395       .  A
C1766      H1771   1.084       .  S
C1767      C1768   1.413       .  A
C1767      C1774   1.445       .  S
C1768      C1769   1.396       .  A
C1769      C1770   1.394       .  A
C1769      H1772   1.083       .  S
C1770      C1773   1.445       .  S
C1773      N1775   1.157       .  T
C1774      N1776   1.157       .  T
C1777      C1778   1.407       .  A
C1777      C1782   1.412       .  A
C1778      C1779   1.395       .  A
C1778      H1783   1.085       .  S
C1779      C1780   1.405       .  A
C1779      C1786   1.443       .  S
C1780      C1781   1.406       .  A
C1781      C1782   1.406       .  A
C1781      H1784   1.085       .  S
C1782      C1785   1.443       .  S
C1785      N1787   1.157       .  T
C1786      N1788   1.157       .  T
C1789      C1790   1.413       .  A
C1789      C1794   1.427       .  A
C1790      C1791   1.412       .  A
C1790      H1795   1.080       .  S
C1791      C1792   1.412       .  A
C1791      C1798   1.444       .  S
C1792      C1793   1.393       .  A
C1793      C1794   1.395       .  A
C1793      H1796   1.085       .  S
C1794      C1797   1.445       .  S
C1797      N1799   1.157       .  T
C1798      N1800   1.157   1_655  T
C1801      C1802   1.409       .  A
C1801      C1806   1.416       .  A
C1802      C1803   1.403       .  A
C1802      H1807   1.085       .  S
C1803      C1804   1.417       .  A
C1803      C1810   1.443       .  S
C1804      C1805   1.413       .  A
C1805      C1806   1.416       .  A
C1805      H1808   1.084       .  S
C1806      C1809   1.442       .  S
C1809      N1811   1.157       .  T
C1810      N1812   1.157       .  T
C1813      C1814   1.404       .  A
C1813      C1818   1.413       .  A
C1814      C1815   1.409       .  A
C1814      H1819   1.085       .  S
C1815      C1816   1.415       .  A
C1815      C1822   1.443       .  S
C1816      C1817   1.405       .  A
C1817      C1818   1.403       .  A
C1817      H1820   1.085       .  S
C1818      C1821   1.445       .  S
C1821      N1823   1.157       .  T
C1822      N1824   1.157       .  T
C1825      C1826   1.408       .  A
C1825      C1830   1.419       .  A
C1826      C1827   1.405       .  A
C1826      H1831   1.084       .  S
C1827      C1828   1.415       .  A
C1827      C1834   1.444       .  S
C1828      C1829   1.404       .  A
C1829      C1830   1.394       .  A
C1829      H1832   1.085       .  S
C1830      C1833   1.445       .  S
C1833      N1835   1.158       .  T
C1834      N1836   1.157       .  T
C1837      C1838   1.399       .  A
C1837      C1842   1.412       .  A
C1838      C1839   1.400       .  A
C1838      H1843   1.085       .  S
C1839      C1840   1.417       .  A
C1839      C1846   1.445       .  S
C1840      C1841   1.402       .  A
C1841      C1842   1.406       .  A
C1841      H1844   1.084       .  S
C1842      C1845   1.441       .  S
C1845      N1847   1.157       .  T
C1846      N1848   1.157   1_565  T
C1849      C1850   1.413       .  A
C1849      C1854   1.410       .  A
C1850      C1851   1.399       .  A
C1850      H1855   1.084       .  S
C1851      C1852   1.406       .  A
C1851      C1858   1.444       .  S
C1852      C1853   1.408       .  A
C1853      C1854   1.403       .  A
C1853      H1856   1.085       .  S
C1854      C1857   1.442       .  S
C1857      N1859   1.157       .  T
C1858      N1860   1.157       .  T
C1861      C1862   1.397       .  A
C1861      C1866   1.406       .  A
C1862      C1863   1.398       .  A
C1862      H1867   1.083       .  S
C1863      C1864   1.424       .  A
C1863      C1870   1.446       .  S
C1864      C1865   1.412       .  A
C1865      C1866   1.398       .  A
C1865      H1868   1.076       .  S
C1866      C1869   1.445       .  S
C1869      N1871   1.157       .  T
C1870      N1872   1.157       .  T
C1873      C1874   1.408       .  A
C1873      C1878   1.416       .  A
C1874      C1875   1.416       .  A
C1874      H1879   1.084       .  S
C1875      C1876   1.416       .  A
C1875      C1882   1.443       .  S
C1876      C1877   1.405       .  A
C1877      C1878   1.409       .  A
C1877      H1880   1.084       .  S
C1878      C1881   1.444       .  S
C1881      N1883   1.157       .  T
C1882      N1884   1.157       .  T
C1885      C1886   1.412       .  A
C1885      C1890   1.420       .  A
C1886      C1887   1.407       .  A
C1886      H1891   1.085       .  S
C1887      C1888   1.411       .  A
C1887      C1894   1.443       .  S
C1888      C1889   1.407       .  A
C1889      C1890   1.417       .  A
C1889      H1892   1.084       .  S
C1890      C1893   1.440       .  S
C1893      N1895   1.157       .  T
C1894      N1896   1.157       .  T
C1897      C1898   1.401       .  A
C1897      C1902   1.412       .  A
C1898      C1899   1.399       .  A
C1898      H1903   1.085       .  S
C1899      C1900   1.415       .  A
C1899      C1906   1.444       .  S
C1900      C1901   1.400       .  A
C1901      C1902   1.400       .  A
C1901      H1904   1.085       .  S
C1902      C1905   1.438       .  S
C1905      N1907   1.156       .  T
C1906      N1908   1.157       .  T
C1909      C1910   1.404   1_455  A
C1909      C1914   1.420       .  A
C1910      C1911   1.404       .  A
C1910      H1915   1.084       .  S
C1911      C1912   1.418   1_655  A
C1911      C1918   1.444       .  S
C1912      C1913   1.405       .  A
C1913      C1914   1.407       .  A
C1913      H1916   1.085       .  S
C1914      C1917   1.444       .  S
C1917      N1919   1.157       .  T
C1918      N1920   1.157       .  T
C1921      C1922   1.401       .  A
C1921      C1926   1.402   1_455  A
C1922      C1923   1.407       .  A
C1922      H1927   1.085       .  S
C1923      C1924   1.422       .  A
C1923      C1930   1.439       .  S
C1924      C1925   1.416       .  A
C1925      C1926   1.392   1_455  A
C1925      H1928   1.085   1_455  S
C1926      C1929   1.446       .  S
C1929      N1931   1.157       .  T
C1930      N1932   1.157       .  T
C1933      C1934   1.416       .  A
C1933      C1938   1.419       .  A
C1934      C1935   1.402       .  A
C1934      H1939   1.084       .  S
C1935      C1936   1.406       .  A
C1935      C1942   1.444       .  S
C1936      C1937   1.406       .  A
C1937      C1938   1.405       .  A
C1937      H1940   1.085       .  S
C1938      C1941   1.441       .  S
C1941      N1943   1.158       .  T
C1942      N1944   1.157       .  T
C1945      C1946   1.396       .  A
C1945      C1950   1.410       .  A
C1946      C1947   1.394       .  A
C1946      H1951   1.085       .  S
C1947      C1948   1.419       .  A
C1947      C1954   1.446       .  S
C1948      C1949   1.407       .  A
C1949      C1950   1.408       .  A
C1949      H1952   1.084       .  S
C1950      C1953   1.443       .  S
C1953      N1955   1.157       .  T
C1954      N1956   1.157       .  T
C1957      C1958   1.407       .  A
C1957      C1962   1.413       .  A
C1958      C1959   1.405       .  A
C1958      H1963   1.085       .  S
C1959      C1960   1.410       .  A
C1959      C1966   1.444       .  S
C1960      C1961   1.405       .  A
C1961      C1962   1.405       .  A
C1961      H1964   1.085       .  S
C1962      C1965   1.443       .  S
C1965      N1967   1.157       .  T
C1966      N1968   1.157       .  T
C1969      C1970   1.420       .  A
C1969      C1974   1.419       .  A
C1970      C1971   1.407       .  A
C1970      H1975   1.076       .  S
C1971      C1972   1.407       .  A
C1971      C1978   1.444       .  S
C1972      C1973   1.405       .  A
C1973      C1974   1.396       .  A
C1973      H1976   1.084       .  S
C1974      C1977   1.446       .  S
C1977      N1979   1.157       .  T
C1978      N1980   1.157       .  T
C1981      C1982   1.401       .  A
C1981      C1986   1.411       .  A
C1982      C1983   1.403       .  A
C1982      H1987   1.084       .  S
C1983      C1984   1.413       .  A
C1983      C1990   1.444       .  S
C1984      C1985   1.401       .  A
C1985      C1986   1.398       .  A
C1985      H1988   1.085       .  S
C1986      C1989   1.442       .  S
C1989      N1991   1.157       .  T
C1990      N1992   1.157       .  T
C1993      C1994   1.414       .  A
C1993      C1998   1.421       .  A
C1994      C1995   1.408       .  A
C1994      H1999   1.084       .  S
C1995      C1996   1.408       .  A
C1995      C2002   1.443       .  S
C1996      C1997   1.404       .  A
C1997      C1998   1.411       .  A
C1997      H2000   1.078       .  S
C1998      C2001   1.444       .  S
C2001      N2003   1.158       .  T
C2002      N2004   1.157       .  T
C2005      C2006   1.407       .  A
C2005      C2010   1.417       .  A
C2006      C2007   1.405       .  A
C2006      H2011   1.085       .  S
C2007      C2008   1.417       .  A
C2007      C2014   1.443       .  S
C2008      C2009   1.409       .  A
C2009      C2010   1.416       .  A
C2009      H2012   1.084       .  S
C2010      C2013   1.439       .  S
C2013      N2015   1.157       .  T
C2014      N2016   1.157       .  T
C2017      C2018   1.408       .  A
C2017      C2022   1.422       .  A
C2018      C2019   1.400       .  A
C2018      H2023   1.084       .  S
C2019      C2020   1.404       .  A
C2019      C2026   1.442       .  S
C2020      C2021   1.391       .  A
C2021      C2022   1.392       .  A
C2021      H2024   1.087       .  S
C2022      C2025   1.441       .  S
C2025      N2027   1.157       .  T
C2026      N2028   1.156       .  T
C2029      C2030   1.402       .  A
C2029      C2034   1.407   1_556  A
C2030      C2031   1.399       .  A
C2030      H2035   1.085       .  S
C2031      C2032   1.418       .  A
C2031      C2038   1.444       .  S
C2032      C2033   1.413   1_556  A
C2033      C2034   1.398       .  A
C2033      H2036   1.084       .  S
C2034      C2037   1.444       .  S
C2037      N2039   1.157       .  T
C2038      N2040   1.157       .  T
C2041      C2042   1.402       .  A
C2041      C2046   1.407       .  A
C2042      C2043   1.392       .  A
C2042      H2047   1.085       .  S
C2043      C2044   1.406       .  A
C2043      C2050   1.444       .  S
C2044      C2045   1.403       .  A
C2045      C2046   1.399       .  A
C2045      H2048   1.085       .  S
C2046      C2049   1.444       .  S
C2049      N2051   1.157       .  T
C2050      N2052   1.157       .  T
C2053      C2054   1.416       .  A
C2053      C2058   1.417       .  A
C2054      C2055   1.405       .  A
C2054      H2059   1.076       .  S
C2055      C2056   1.413       .  A
C2055      C2062   1.445       .  S
C2056      C2057   1.409       .  A
C2057      C2058   1.398       .  A
C2057      H2060   1.084       .  S
C2058      C2061   1.445       .  S
C2061      N2063   1.157       .  T
C2062      N2064   1.157       .  T
C2065      C2066   1.416       .  A
C2065      C2070   1.416       .  A
C2066      C2067   1.405       .  A
C2066      H2071   1.084       .  S
C2067      C2068   1.403       .  A
C2067      C2074   1.444       .  S
C2068      C2069   1.396       .  A
C2069      C2070   1.389       .  A
C2069      H2072   1.087       .  S
C2070      C2073   1.439       .  S
C2073      N2075   1.157       .  T
C2074      N2076   1.157       .  T
C2077      C2078   1.405       .  A
C2077      C2082   1.408   1_556  A
C2078      C2079   1.399       .  A
C2078      H2083   1.085       .  S
C2079      C2080   1.417   1_556  A
C2079      C2086   1.444       .  S
C2080      C2081   1.413       .  A
C2081      C2082   1.404       .  A
C2081      H2084   1.083       .  S
C2082      C2085   1.444       .  S
C2085      N2087   1.157       .  T
C2086      N2088   1.157       .  T
C2089      C2090   1.400       .  A
C2089      C2094   1.406       .  A
C2090      C2091   1.393       .  A
C2090      H2095   1.085       .  S
C2091      C2092   1.405       .  A
C2091      C2098   1.444       .  S
C2092      C2093   1.402       .  A
C2093      C2094   1.394       .  A
C2093      H2096   1.085   1_554  S
C2094      C2097   1.443   1_554  S
C2097      N2099   1.157       .  T
C2098      N2100   1.157       .  T
C2101      C2102   1.420       .  A
C2101      C2106   1.419       .  A
C2102      C2103   1.407       .  A
C2102      H2107   1.075       .  S
C2103      C2104   1.406       .  A
C2103      C2110   1.444       .  S
C2104      C2105   1.404       .  A
C2105      C2106   1.398       .  A
C2105      H2108   1.085       .  S
C2106      C2109   1.444       .  S
C2109      N2111   1.157       .  T
C2110      N2112   1.157       .  T
C2113      C2114   1.403       .  A
C2113      C2118   1.410       .  A
C2114      C2115   1.405       .  A
C2114      H2119   1.084       .  S
C2115      C2116   1.412       .  A
C2115      C2122   1.444       .  S
C2116      C2117   1.404       .  A
C2117      C2118   1.399       .  A
C2117      H2120   1.085       .  S
C2118      C2121   1.445       .  S
C2121      N2123   1.157       .  T
C2122      N2124   1.157       .  T
C2125      C2126   1.419   1_565  A
C2125      C2130   1.420       .  A
C2126      C2127   1.420       .  A
C2126      H2131   1.084       .  S
C2127      C2128   1.415   1_545  A
C2127      C2134   1.442       .  S
C2128      C2129   1.409       .  A
C2129      C2130   1.406       .  A
C2129      H2132   1.085       .  S
C2130      C2133   1.443       .  S
C2133      N2135   1.157       .  T
C2134      N2136   1.158       .  T
C2137      C2138   1.412   1_565  A
C2137      C2142   1.420       .  A
C2138      C2139   1.420       .  A
C2138      H2143   1.084       .  S
C2139      C2140   1.416       .  A
C2139      C2146   1.443       .  S
C2140      C2141   1.403   1_545  A
C2141      C2142   1.408       .  A
C2141      H2144   1.085       .  S
C2142      C2145   1.441       .  S
C2145      N2147   1.156       .  T
C2146      N2148   1.157       .  T
C2149      C2150   1.399       .  A
C2149      C2154   1.411       .  A
C2150      C2151   1.397       .  A
C2150      H2155   1.085       .  S
C2151      C2152   1.412       .  A
C2151      C2158   1.445       .  S
C2152      C2153   1.399       .  A
C2153      C2154   1.401       .  A
C2153      H2156   1.085       .  S
C2154      C2157   1.444       .  S
C2157      N2159   1.157       .  T
C2158      N2160   1.157       .  T
C2161      C2162   1.394       .  A
C2161      C2166   1.406       .  A
C2162      C2163   1.395       .  A
C2162      H2167   1.084       .  S
C2163      C2164   1.425       .  A
C2163      C2170   1.446       .  S
C2164      C2165   1.412       .  A
C2165      C2166   1.400       .  A
C2165      H2168   1.077       .  S
C2166      C2169   1.445   1_554  S
C2169      N2171   1.157       .  T
C2170      N2172   1.157       .  T
C2173      C2174   1.398       .  A
C2173      C2178   1.403       .  A
C2174      C2175   1.392       .  A
C2174      H2179   1.087       .  S
C2175      C2176   1.419       .  A
C2175      C2182   1.443       .  S
C2176      C2177   1.414       .  A
C2177      C2178   1.404       .  A
C2177      H2180   1.083       .  S
C2178      C2181   1.442   1_554  S
C2181      N2183   1.157       .  T
C2182      N2184   1.158       .  T
C2185      C2186   1.412   1_554  A
C2185      C2190   1.419       .  A
C2186      C2187   1.396       .  A
C2186      H2191   1.084       .  S
C2187      C2188   1.403       .  A
C2187      C2194   1.443       .  S
C2188      C2189   1.395   1_556  A
C2189      C2190   1.391       .  A
C2189      H2192   1.084       .  S
C2190      C2193   1.442       .  S
C2193      N2195   1.157       .  T
C2194      N2196   1.157       .  T
C2197      C2198   1.397   1_556  A
C2197      C2202   1.414       .  A
C2198      C2199   1.392       .  A
C2198      H2203   1.081       .  S
C2199      C2200   1.410   1_554  A
C2199      C2206   1.444       .  S
C2200      C2201   1.399       .  A
C2201      C2202   1.390       .  A
C2201      H2204   1.086       .  S
C2202      C2205   1.445       .  S
C2205      N2207   1.157       .  T
C2206      N2208   1.157       .  T
C2209      C2210   1.400       .  A
C2209      C2214   1.411       .  A
C2210      C2211   1.397       .  A
C2210      H2215   1.081       .  S
C2211      C2212   1.412       .  A
C2211      C2218   1.445       .  S
C2212      C2213   1.405       .  A
C2213      C2214   1.405       .  A
C2213      H2216   1.085       .  S
C2214      C2217   1.442       .  S
C2217      N2219   1.157       .  T
C2218      N2220   1.157       .  T
C2221      C2222   1.415       .  A
C2221      C2226   1.420       .  A
C2222      C2223   1.403       .  A
C2222      H2227   1.081       .  S
C2223      C2224   1.407       .  A
C2223      C2230   1.445       .  S
C2224      C2225   1.411       .  A
C2225      C2226   1.422       .  A
C2225      H2228   1.084       .  S
C2226      C2229   1.442       .  S
C2229      N2231   1.157       .  T
C2230      N2232   1.157       .  T
C2233      C2234   1.409       .  A
C2233      C2238   1.411       .  A
C2234      C2235   1.402       .  A
C2234      H2239   1.085       .  S
C2235      C2236   1.408       .  A
C2235      C2242   1.444       .  S
C2236      C2237   1.407       .  A
C2237      C2238   1.407       .  A
C2237      H2240   1.085       .  S
C2238      C2241   1.443       .  S
C2241      N2243   1.157       .  T
C2242      N2244   1.157       .  T
C2245      C2246   1.403       .  A
C2245      C2250   1.412       .  A
C2246      C2247   1.403       .  A
C2246      H2251   1.084       .  S
C2247      C2248   1.411       .  A
C2247      C2254   1.443       .  S
C2248      C2249   1.404       .  A
C2249      C2250   1.405       .  A
C2249      H2252   1.085       .  S
C2250      C2253   1.443       .  S
C2253      N2255   1.157       .  T
C2254      N2256   1.157       .  T
C2257      C2258   1.405       .  A
C2257      C2262   1.411       .  A
C2258      C2259   1.403       .  A
C2258      H2263   1.085       .  S
C2259      C2260   1.414       .  A
C2259      C2266   1.443       .  S
C2260      C2261   1.408       .  A
C2261      C2262   1.400       .  A
C2261      H2264   1.085       .  S
C2262      C2265   1.443       .  S
C2265      N2267   1.157       .  T
C2266      N2268   1.157       .  T
C2269      C2270   1.404       .  A
C2269      C2274   1.417       .  A
C2270      C2271   1.400       .  A
C2270      H2275   1.085       .  S
C2271      C2272   1.409       .  A
C2271      C2278   1.444       .  S
C2272      C2273   1.398       .  A
C2273      C2274   1.399       .  A
C2273      H2276   1.085       .  S
C2274      C2277   1.444       .  S
C2277      N2279   1.157       .  T
C2278      N2280   1.157       .  T
C2281      C2282   1.404       .  A
C2281      C2286   1.414       .  A
C2282      C2283   1.398       .  A
C2282      H2287   1.084       .  S
C2283      C2284   1.409       .  A
C2283      C2290   1.444       .  S
C2284      C2285   1.403       .  A
C2285      C2286   1.406       .  A
C2285      H2288   1.085       .  S
C2286      C2289   1.442       .  S
C2289      N2291   1.157       .  T
C2290      N2292   1.157       .  T
C2293      C2294   1.412       .  A
C2293      C2298   1.426       .  A
C2294      C2295   1.400       .  A
C2294      H2299   1.078       .  S
C2295      C2296   1.406       .  A
C2295      C2302   1.444       .  S
C2296      C2297   1.396       .  A
C2297      C2298   1.397       .  A
C2297      H2300   1.086       .  S
C2298      C2301   1.445       .  S
C2301      N2303   1.157       .  T
C2302      N2304   1.157       .  T
C2305      C2306   1.401       .  A
C2305      C2310   1.409       .  A
C2306      C2307   1.391       .  A
C2306      H2311   1.086       .  S
C2307      C2308   1.416       .  A
C2307      C2314   1.445       .  S
C2308      C2309   1.412       .  A
C2309      C2310   1.410       .  A
C2309      H2312   1.084       .  S
C2310      C2313   1.443       .  S
C2313      N2315   1.157       .  T
C2314      N2316   1.157       .  T
C2317      C2318   1.406       .  A
C2317      C2322   1.413       .  A
C2318      C2319   1.412       .  A
C2318      H2323   1.085       .  S
C2319      C2320   1.415       .  A
C2319      C2326   1.443       .  S
C2320      C2321   1.409       .  A
C2321      C2322   1.408       .  A
C2321      H2324   1.085       .  S
C2322      C2325   1.444       .  S
C2325      N2327   1.157       .  T
C2326      N2328   1.157       .  T
C2329      C2330   1.412       .  A
C2329      C2334   1.421       .  A
C2330      C2331   1.408       .  A
C2330      H2335   1.084       .  S
C2331      C2332   1.416       .  A
C2331      C2338   1.443       .  S
C2332      C2333   1.404       .  A
C2333      C2334   1.403       .  A
C2333      H2336   1.085       .  S
C2334      C2337   1.443       .  S
C2337      N2339   1.157       .  T
C2338      N2340   1.157       .  T
C2341      C2342   1.405       .  A
C2341      C2346   1.409       .  A
C2342      C2343   1.394       .  A
C2342      H2347   1.085       .  S
C2343      C2344   1.417       .  A
C2343      C2350   1.445       .  S
C2344      C2345   1.415       .  A
C2345      C2346   1.398       .  A
C2345      H2348   1.078       .  S
C2346      C2349   1.446       .  S
C2349      N2351   1.158       .  T
C2350      N2352   1.157       .  T
C2353      C2354   1.404       .  A
C2353      C2358   1.421       .  A
C2354      C2355   1.405       .  A
C2354      H2359   1.084       .  S
C2355      C2356   1.412       .  A
C2355      C2362   1.443       .  S
C2356      C2357   1.399       .  A
C2357      C2358   1.403       .  A
C2357      H2360   1.085       .  S
C2358      C2361   1.445       .  S
C2361      N2363   1.157       .  T
C2362      N2364   1.157       .  T
C2365      C2366   1.405       .  A
C2365      C2370   1.410       .  A
C2366      C2367   1.394       .  A
C2366      H2371   1.085       .  S
C2367      C2368   1.404       .  A
C2367      C2374   1.444       .  S
C2368      C2369   1.404       .  A
C2369      C2370   1.403       .  A
C2369      H2372   1.085       .  S
C2370      C2373   1.443       .  S
C2373      N2375   1.157       .  T
C2374      N2376   1.157       .  T
C2377      C2378   1.405       .  A
C2377      C2382   1.410       .  A
C2378      C2379   1.399       .  A
C2378      H2383   1.085       .  S
C2379      C2380   1.408       .  A
C2379      C2386   1.444       .  S
C2380      C2381   1.401       .  A
C2381      C2382   1.392       .  A
C2381      H2384   1.084       .  S
C2382      C2385   1.445       .  S
C2385      N2387   1.157       .  T
C2386      N2388   1.157       .  T
C2389      C2390   1.399   1_565  A
C2389      C2394   1.413       .  A
C2390      C2391   1.405       .  A
C2390      H2395   1.085       .  S
C2391      C2392   1.425       .  A
C2391      C2398   1.445       .  S
C2392      C2393   1.408   1_545  A
C2393      C2394   1.410       .  A
C2393      H2396   1.084       .  S
C2394      C2397   1.443       .  S
C2397      N2399   1.157       .  T
C2398      N2400   1.157       .  T
C2401      C2402   1.418   1_565  A
C2401      C2406   1.423       .  A
C2402      C2403   1.408       .  A
C2402      H2407   1.082       .  S
C2403      C2404   1.408       .  A
C2403      C2410   1.443       .  S
C2404      C2405   1.404   1_545  A
C2405      C2406   1.406       .  A
C2405      H2408   1.085       .  S
C2406      C2409   1.442       .  S
C2409      N2411   1.157       .  T
C2410      N2412   1.157   1_655  T
C2413      C2414   1.410       .  A
C2413      C2418   1.415       .  A
C2414      C2415   1.417       .  A
C2414      H2419   1.084       .  S
C2415      C2416   1.413       .  A
C2415      C2422   1.442       .  S
C2416      C2417   1.405       .  A
C2417      C2418   1.398       .  A
C2417      H2420   1.085       .  S
C2418      C2421   1.446       .  S
C2421      N2423   1.157       .  T
C2422      N2424   1.157       .  T
C2425      C2426   1.407       .  A
C2425      C2430   1.407       .  A
C2426      C2427   1.408       .  A
C2426      H2431   1.085       .  S
C2427      C2428   1.419       .  A
C2427      C2434   1.444       .  S
C2428      C2429   1.420       .  A
C2429      C2430   1.407       .  A
C2429      H2432   1.078       .  S
C2430      C2433   1.445       .  S
C2433      N2435   1.157       .  T
C2434      N2436   1.157       .  T
C2437      C2438   1.411       .  A
C2437      C2442   1.425       .  A
C2438      C2439   1.403       .  A
C2438      H2443   1.084       .  S
C2439      C2440   1.411       .  A
C2439      C2446   1.445       .  S
C2440      C2441   1.400       .  A
C2441      C2442   1.406       .  A
C2441      H2444   1.085       .  S
C2442      C2445   1.444       .  S
C2445      N2447   1.157       .  T
C2446      N2448   1.157       .  T
C2449      C2450   1.400       .  A
C2449      C2454   1.414       .  A
C2450      C2451   1.405       .  A
C2450      H2455   1.085       .  S
C2451      C2452   1.420       .  A
C2451      C2458   1.445       .  S
C2452      C2453   1.402       .  A
C2453      C2454   1.408       .  A
C2453      H2456   1.084       .  S
C2454      C2457   1.443       .  S
C2457      N2459   1.157       .  T
C2458      N2460   1.157       .  T
C2461      C2462   1.403       .  A
C2461      C2466   1.416       .  A
C2462      C2463   1.409       .  A
C2462      H2467   1.085       .  S
C2463      C2464   1.415       .  A
C2463      C2470   1.442       .  S
C2464      C2465   1.405       .  A
C2465      C2466   1.411       .  A
C2465      H2468   1.085       .  S
C2466      C2469   1.444       .  S
C2469      N2471   1.157       .  T
C2470      N2472   1.157       .  T
C2473      C2474   1.406       .  A
C2473      C2478   1.409       .  A
C2474      C2475   1.395       .  A
C2474      H2479   1.085       .  S
C2475      C2476   1.415       .  A
C2475      C2482   1.445       .  S
C2476      C2477   1.415       .  A
C2477      C2478   1.398       .  A
C2477      H2480   1.079       .  S
C2478      C2481   1.446       .  S
C2481      N2483   1.158       .  T
C2482      N2484   1.157       .  T
C2485      C2486   1.407       .  A
C2485      C2490   1.421       .  A
C2486      C2487   1.416       .  A
C2486      H2491   1.084       .  S
C2487      C2488   1.415       .  A
C2487      C2494   1.442       .  S
C2488      C2489   1.402       .  A
C2489      C2490   1.410       .  A
C2489      H2492   1.085       .  S
C2490      C2493   1.444       .  S
C2493      N2495   1.157       .  T
C2494      N2496   1.157       .  T
