geometry optimzed in LAMMPS
_audit_creation_date              2020-11-30 
_audit_creation_method            'lammps2cif' 
_symmetry_space_group_name_H-M    'P1' 
_symmetry_Int_Tables_number       1 
_symmetry_cell_setting            triclinic 
loop_ 
_symmetry_equiv_pos_as_xyz 
  x,y,z 
_cell_length_a                    40.2191182 
_cell_length_b                    43.80487642277036 
_cell_length_c                    43.64340656032633 
_cell_angle_alpha                 90.5538214049175 
_cell_angle_beta                  89.70660621771948 
_cell_angle_gamma                 89.00950417233767 
loop_ 
_atom_site_label 
_atom_site_type_symbol 
_atom_site_fract_x 
_atom_site_fract_y 
_atom_site_fract_z 
_atom_site_charge 
Zr1        Zr  0.79338352  0.77559060  0.77261027     2.17500
O2          O  0.84736249  0.80016483  0.77110503    -0.52000
O3          O  0.77604539  0.79221942  0.82401657    -0.75200
O4          O  0.78849721  0.83002380  0.76378351    -0.82000
O5          O  0.83628952  0.70295666  0.79871546    -0.83700
O6          O  0.75307408  0.83859072  0.72420740    -0.79300
O7          O  0.83752244  0.75482890  0.80313057    -0.91000
O8          O  0.72619260  0.77093610  0.83401343    -0.76900
O9          O  0.73548395  0.78542972  0.76780703    -0.86400
O10         O  0.76765411  0.73282410  0.79527407    -0.86100
O11         O  0.78449976  0.77965267  0.71843221    -0.72900
O12         O  0.81311730  0.73136025  0.74436073    -0.85000
Zr13       Zr  0.71765794  0.70249349  0.70783042     2.26400
Zr14       Zr  0.72582732  0.78910778  0.71378532     2.06300
Zr15       Zr  0.78666757  0.68859540  0.76739374     2.10000
Zr16       Zr  0.70972563  0.74221287  0.78974238     1.78800
O17         O  0.82913543  0.65290593  0.74828067    -0.93800
O18         O  0.66601398  0.78116122  0.79478965    -0.41600
O19         O  0.72803287  0.69790262  0.76178583    -0.78300
O20         O  0.69813586  0.74640059  0.73655040    -0.97000
O21         O  0.74387494  0.74484197  0.68487321    -0.90300
O22         O  0.77570630  0.69182897  0.71322979    -0.93100
C23         C  0.75071833  0.78755941  0.84135519     1.00700
C24         C  0.84894783  0.72813717  0.80896844     1.13600
C25         C  0.77421904  0.84768979  0.74442776     1.04400
O26         O  0.68402770  0.82738952  0.72854453    -0.95300
O27         O  0.67374563  0.77777371  0.68715959    -0.91000
O28         O  0.67085227  0.72611475  0.68154734    -0.84100
C29         C  0.65929986  0.75330785  0.67796898     1.11000
O30         O  0.85853142  0.75262435  0.68854273    -0.97200
Zr31       Zr  0.80167452  0.73452124  0.69043573     1.88900
O32         O  0.73243016  0.68806139  0.65539169    -0.73900
O33         O  0.73272078  0.80917039  0.66236414    -0.53100
O34         O  0.81027416  0.77341839  0.65182600    -0.97800
O35         O  0.84275454  0.69440044  0.67885396    -0.55000
O36         O  0.78135732  0.71036504  0.64358416    -0.74400
C37         C  0.75593948  0.69439317  0.63665020     0.98000
O38         O  0.66833133  0.67075182  0.70703010    -0.63200
O39         O  0.78345358  0.66316238  0.81678736    -0.58000
O40         O  0.71804509  0.64896978  0.72078805    -0.94700
O41         O  0.75301673  0.64171306  0.76107551    -0.93100
O42         O  0.70425523  0.70910134  0.83390408    -0.93500
O43         O  0.65579737  0.71815673  0.79423111    -0.92300
C44         C  0.73041965  0.63252423  0.74217084     1.16800
H45         H  0.77358572  0.73108539  0.81659765     0.32700
H46         H  0.67426239  0.74862137  0.73546534     0.43600
H47         H  0.78170707  0.67292754  0.70284733     0.37100
H48         H  0.79678845  0.79661853  0.71047840     0.33600
H49         H  0.65551287  0.77741582  0.81493226     0.25400
H50         H  0.71486532  0.82487296  0.66047086     0.31300
H51         H  0.79031296  0.77258089  0.63868532     0.37200
H52         H  0.71724953  0.69045007  0.82832209     0.31700
H53         H  0.80567031  0.65357952  0.81970921     0.30600
H54         H  0.83032971  0.63675980  0.76397302     0.32300
H55         H  0.82996353  0.67673225  0.67142174     0.31200
H56         H  0.65252247  0.70785999  0.77420813     0.35200
H57         H  0.65011183  0.68346483  0.71605535     0.27900
H58         H  0.84597573  0.81708046  0.78630818     0.32200
H59         H  0.85838647  0.77089852  0.70208006     0.35000
H60         H  0.78226767  0.67976702  0.83232402     0.27600
H61         H  0.66246005  0.66815113  0.68515986     0.40500
H62         H  0.66742283  0.81602579  0.74052250     0.30600
H63         H  0.67787239  0.80059801  0.79756940     0.38200
H64         H  0.85127913  0.68804229  0.69909774     0.30000
H65         H  0.75352938  0.82088284  0.66318527     0.30100
H66         H  0.84848871  0.81025489  0.75092653     0.30400
C67         C  0.88419674  0.99141626  0.78770783     0.85800
C68         C  0.86278092  0.96286221  0.78421288    -0.68800
C69         C  0.84310995  0.96216837  0.75855644     0.08800
C70         C  0.84757816  0.99069336  0.73796371     0.19700
C71         C  0.90428943  0.99202134  0.75743376    -0.55100
C72         C  0.88549636  0.99197149  0.73136186     0.08900
C73         C  0.85955719  0.01817695  0.78518824    -0.54700
C74         C  0.84059225  0.01858657  0.75929731     0.09400
H75         H  0.86329792  0.94457015  0.80082506     0.13900
H76         H  0.83215595  0.99057788  0.71700975    -0.00300
H77         H  0.93108321  0.99285003  0.75601147     0.14200
H78         H  0.85789295  0.03599585  0.80264645     0.14000
Zr79       Zr  0.77073469  0.20088432  0.70545292     2.17500
O80         O  0.81980369  0.17322087  0.68589248    -0.52000
O81         O  0.75570794  0.18838096  0.65309259    -0.75200
O82         O  0.77546684  0.14770992  0.72098980    -0.82000
O83         O  0.81480882  0.27769531  0.69432944    -0.83700
O84         O  0.73562234  0.13618986  0.75589675    -0.79300
O85         O  0.82158553  0.22618429  0.69171556    -0.91000
O86         O  0.70534712  0.20940857  0.64310989    -0.76900
O87         O  0.71333482  0.18928150  0.70980666    -0.86400
O88         O  0.74264262  0.24417709  0.68404906    -0.86100
O89         O  0.76115469  0.19481919  0.75951984    -0.72900
O90         O  0.78727730  0.24441330  0.73493009    -0.85000
Zr91       Zr  0.69023234  0.27066133  0.77235324     2.26400
Zr92       Zr  0.70285582  0.18395993  0.76370950     2.06300
Zr93       Zr  0.75840885  0.28760140  0.71422671     2.10000
Zr94       Zr  0.68507065  0.23291205  0.68970368     1.78800
O95         O  0.79515917  0.32733709  0.73262592    -0.93800
O96         O  0.64648154  0.19237920  0.67724677    -0.41600
O97         O  0.70040352  0.27705015  0.71869489    -0.78300
O98         O  0.67328638  0.22703619  0.74284982    -0.97000
O99         O  0.71886227  0.22775978  0.79360802    -0.90300
O100        O  0.74762300  0.28217033  0.76775276    -0.93100
C101        C  0.73153335  0.19433011  0.63504606     1.00700
C102        C  0.83223936  0.25336203  0.68843458     1.13600
C103        C  0.76155442  0.12931667  0.73957078     1.04400
O104        O  0.66294136  0.14954268  0.74064890    -0.95300
O105        O  0.65153266  0.19351466  0.79378937    -0.91000
O106        O  0.64659163  0.24508619  0.79992650    -0.84100
C107        C  0.63659242  0.21782706  0.80418911     1.11000
O108        O  0.83098520  0.21428399  0.79003575    -0.97200
Zr109      Zr  0.77631445  0.23903356  0.78814748     1.88900
O110        O  0.70686079  0.28700458  0.82339339    -0.73900
O111        O  0.70542398  0.15654352  0.81196851    -0.53100
O112        O  0.78040284  0.20612587  0.83270518    -0.97800
O113        O  0.82129723  0.27506139  0.79506189    -0.55000
O114        O  0.75997369  0.27032833  0.83111969    -0.74400
C115        C  0.73356167  0.28489860  0.83924264     0.98000
O116        O  0.63793334  0.29976783  0.77416111    -0.63200
O117        O  0.75558674  0.31104210  0.66384227    -0.58000
O118        O  0.68701137  0.32472714  0.76052359    -0.94700
O119        O  0.72508196  0.33446486  0.72321540    -0.93100
O120        O  0.67160681  0.27064961  0.65090962    -0.93500
O121        O  0.62748232  0.25095025  0.69193870    -0.92300
C122        C  0.70110192  0.34253568  0.74143008     1.16800
H123        H  0.74895774  0.24745363  0.66296199     0.32700
H124        H  0.64958445  0.22432442  0.74451593     0.43600
H125        H  0.75280458  0.30083194  0.77857340     0.37100
H126        H  0.77469716  0.17875751  0.76802029     0.33600
H127        H  0.63805262  0.19751889  0.65661392     0.25400
H128        H  0.69792339  0.13567309  0.80697073     0.31300
H129        H  0.78498295  0.18538845  0.82431947     0.37200
H130        H  0.68938791  0.28590663  0.65262388     0.31700
H131        H  0.76074266  0.33278427  0.66755590     0.30600
H132        H  0.79728157  0.34149146  0.71520029     0.32300
H133        H  0.81025907  0.29534508  0.79724637     0.31200
H134        H  0.62829230  0.27056811  0.70335668     0.35200
H135        H  0.62120477  0.28643934  0.76455960     0.27900
H136        H  0.81190907  0.15441030  0.67570797     0.32200
H137        H  0.83348732  0.20377617  0.76994399     0.35000
H138        H  0.77517473  0.30278734  0.65247899     0.27600
H139        H  0.63145636  0.30127790  0.79605514     0.40500
H140        H  0.67650486  0.13462644  0.72857337     0.30600
H141        H  0.66059248  0.17389179  0.67388196     0.38200
H142        H  0.83255604  0.27572352  0.77485342     0.30000
H143        H  0.72946414  0.15409733  0.81627682     0.30100
H144        H  0.83253395  0.16617151  0.70389782     0.30400
C145        C  0.64862477  0.52213543  0.74588008     0.85800
C146        C  0.62571683  0.51931283  0.77416965    -0.54400
C147        C  0.60525233  0.49469068  0.77365311     0.08800
C148        C  0.60943445  0.47455401  0.74457515     0.19700
C149        C  0.66710231  0.49115319  0.74384577    -0.55100
C150        C  0.64693775  0.46631121  0.74332248     0.08900
C151        C  0.62391361  0.52167409  0.71886138    -0.54700
C152        C  0.60374178  0.49676112  0.71771714     0.09400
H153        H  0.62469020  0.53545925  0.79307530     0.13900
H154        H  0.59315598  0.45433566  0.74406782    -0.00300
H155        H  0.69404721  0.48904274  0.74322887     0.14200
H156        H  0.62276480  0.53933206  0.70160303     0.14000
C157        C  0.75688337  0.64660876  0.45588785     0.85800
C158        C  0.72438027  0.62924282  0.45425066    -0.54400
C159        C  0.71799741  0.61180410  0.47909430     0.08800
C160        C  0.74515288  0.61280409  0.50382344     0.19700
C161        C  0.75490195  0.66463012  0.48662568    -0.55100
C162        C  0.74849010  0.64704859  0.51183559     0.08900
C163        C  0.78388523  0.62222975  0.46205670    -0.54700
C164        C  0.77783048  0.60439118  0.48686892     0.09400
H165        H  0.70693641  0.63169732  0.43544826     0.13900
H166        H  0.73985438  0.59807975  0.52375508    -0.00300
H167        H  0.76062971  0.68862472  0.48870809     0.14200
H168        H  0.80687969  0.62020359  0.44899558     0.14000
Zr169      Zr  0.71941674  0.79818482  0.20857962     2.17500
O170        O  0.66672821  0.82417485  0.19733961    -0.52000
O171        O  0.73646128  0.81522777  0.15752652    -0.75200
O172        O  0.71613307  0.85061144  0.22672786    -0.82000
O173        O  0.67337355  0.72483291  0.18797659    -0.83700
O174        O  0.75547697  0.85972850  0.26264927    -0.79300
O175        O  0.67108021  0.77650989  0.18537880    -0.91000
O176        O  0.78565510  0.79224231  0.14594737    -0.76900
O177        O  0.77727357  0.80732524  0.21318729    -0.86400
O178        O  0.74527285  0.75509297  0.18428912    -0.86100
O179        O  0.72871494  0.80110564  0.26302785    -0.72900
O180        O  0.70057175  0.75444237  0.23631358    -0.85000
Zr181      Zr  0.79693178  0.72236877  0.26918295     2.26400
Zr182      Zr  0.78729112  0.81014984  0.26755783     2.06300
Zr183      Zr  0.72694918  0.71130388  0.21180519     2.10000
Zr184      Zr  0.80323801  0.76349573  0.18960824     1.78800
O185        O  0.68805752  0.67349766  0.23009447    -0.93800
O186        O  0.84641169  0.80081421  0.18071584    -0.41600
O187        O  0.78600958  0.71849237  0.21544245    -0.78300
O188        O  0.81517808  0.76717619  0.24288217    -0.97000
O189        O  0.77087966  0.76506407  0.29432604    -0.90300
O190        O  0.73893009  0.71323270  0.26566977    -0.93100
C191        C  0.76069741  0.80907027  0.13898027     1.00700
C192        C  0.65900746  0.75017832  0.18028988     1.13600
C193        C  0.72976957  0.86798249  0.24665068     1.04400
O194        O  0.82968144  0.84521299  0.25040656    -0.95300
O195        O  0.83693363  0.79538170  0.29830707    -0.91000
O196        O  0.84381547  0.74367654  0.29518632    -0.84100
C197        C  0.85282173  0.77012801  0.30417020     1.11000
O198        O  0.65649523  0.77634143  0.29543150    -0.97200
Zr199      Zr  0.71307232  0.75632359  0.29002083     1.88900
O200        O  0.78060568  0.70435716  0.31938654    -0.73900
O201        O  0.78134654  0.83384398  0.31804802    -0.53100
O202        O  0.70534513  0.79390962  0.33105626    -0.97800
O203        O  0.67261317  0.71675347  0.29987603    -0.55000
O204        O  0.73522806  0.73154197  0.33525481    -0.74400
C205        C  0.75902250  0.71231068  0.33979793     0.98000
O206        O  0.84934527  0.69511163  0.27861267    -0.63200
O207        O  0.72611942  0.69066904  0.15977057    -0.58000
O208        O  0.79871530  0.67013989  0.24929284    -0.94700
O209        O  0.75652463  0.66209088  0.21587630    -0.93100
O210        O  0.80824275  0.72755323  0.14680301    -0.93500
O211        O  0.85813134  0.73924086  0.18597492    -0.92300
C212        C  0.78226220  0.65310970  0.23091530     1.16800
H213        H  0.73888413  0.75341054  0.16303785     0.32700
H214        H  0.83895799  0.76920830  0.24425344     0.43600
H215        H  0.73329615  0.69431201  0.27548513     0.37100
H216        H  0.71560318  0.81727526  0.27243896     0.33600
H217        H  0.85541679  0.79570231  0.16010110     0.25400
H218        H  0.75708901  0.83710732  0.32075452     0.31300
H219        H  0.72553092  0.79191358  0.34382143     0.37200
H220        H  0.82469966  0.73660459  0.13276915     0.31700
H221        H  0.74938214  0.69196786  0.15246180     0.30600
H222        H  0.68797917  0.65754684  0.21386431     0.32300
H223        H  0.68516992  0.70008338  0.31002351     0.31200
H224        H  0.85697187  0.72150994  0.19981908     0.35200
H225        H  0.84351062  0.67608712  0.28932357     0.27900
H226        H  0.67225593  0.84329443  0.18666886     0.32200
H227        H  0.65142576  0.78547687  0.27528646     0.35000
H228        H  0.72236039  0.66854536  0.16218325     0.27600
H229        H  0.85792810  0.68846742  0.25826734     0.40500
H230        H  0.84831285  0.83182025  0.24331054     0.30600
H231        H  0.83430557  0.82046589  0.17795745     0.38200
H232        H  0.66719147  0.70842315  0.27937505     0.30000
H233        H  0.78703591  0.81743630  0.33266578     0.30100
H234        H  0.65711954  0.83059822  0.21735734     0.30400
C235        C  0.74795890  0.85259993  0.95862999     0.85800
C236        C  0.77724018  0.87431788  0.95777453    -0.54400
C237        C  0.77956810  0.89290431  0.98274683     0.08800
C238        C  0.75170086  0.88898625  0.00645192     0.19700
C239        C  0.75078754  0.83589790  0.98948145    -0.55100
C240        C  0.75251150  0.85498419  0.01455567     0.08900
C241        C  0.71766436  0.87442745  0.96314494    -0.54700
C242        C  0.71961008  0.89286499  0.98831782     0.09400
H243        H  0.79551213  0.87412791  0.93937616     0.13900
H244        H  0.75360160  0.90468479  0.02646054    -0.00300
H245        H  0.75073963  0.81119104  0.99124882     0.14200
H246        H  0.69601823  0.87594549  0.94864629     0.14000
C247        C  0.49423627  0.72069681  0.08471538     0.85800
C248        C  0.46685000  0.72945896  0.10844364    -0.54400
C249        C  0.47222554  0.75618973  0.12390363     0.08800
C250        C  0.50447898  0.77199273  0.11447148     0.19700
C251        C  0.49556641  0.74881191  0.06412397    -0.55100
C252        C  0.50117403  0.77542182  0.07947665     0.08900
C253        C  0.52620309  0.72087805  0.10353008    -0.54700
C254        C  0.53176401  0.74725596  0.11916715     0.09400
H255        H  0.44449670  0.71690260  0.11292565     0.13900
H256        H  0.50884753  0.79375231  0.12697286    -0.00300
H257        H  0.49087717  0.74813817  0.03966718     0.14200
H258        H  0.54307253  0.70127510  0.10480652     0.14000
C259        C  0.34708636  0.96275472  0.76204293     0.85800
C260        C  0.36509984  0.96420131  0.79290969    -0.54400
C261        C  0.38437717  0.98912876  0.79709266     0.08800
C262        C  0.38433731  0.01089337  0.76894266     0.19700
C263        C  0.32821348  0.99307951  0.75947136    -0.55100
C264        C  0.34719065  0.01823920  0.76261577     0.08900
C265        C  0.37585683  0.96468256  0.73847756    -0.54700
C266        C  0.39508273  0.99020978  0.74127708     0.09400
H267        H  0.36330375  0.94675344  0.81029637     0.13900
H268        H  0.39976498  0.03146835  0.77197689    -0.00300
H269        H  0.30160594  0.99452636  0.75530729     0.14200
H270        H  0.38017634  0.94788646  0.72044192     0.14000
C271        C  0.74669768  0.33454366  0.96210466     0.85800
C272        C  0.77387004  0.35809032  0.96843133    -0.54400
C273        C  0.77423485  0.36901156  0.99775646     0.08800
C274        C  0.74846524  0.35423230  0.01893894     0.19700
C275        C  0.75352169  0.30924814  0.98552600    -0.55100
C276        C  0.75430306  0.31943375  0.01512944     0.08900
C277        C  0.71461159  0.35047909  0.97316569    -0.54700
C278        C  0.71511850  0.36014770  0.00288845     0.09400
H279        H  0.79166123  0.36619862  0.95190522     0.13900
H280        H  0.74900587  0.36254635  0.04305606    -0.00300
H281        H  0.75618754  0.28524090  0.97937351     0.14200
H282        H  0.69309660  0.35392119  0.95854665     0.14000
C283        C  0.25350862  0.65059370  0.02198747     0.85800
C284        C  0.28304818  0.62868342  0.01571707    -0.54400
C285        C  0.28050267  0.61174669  0.98940655     0.08800
C286        C  0.24854254  0.61822824  0.97135732     0.19700
C287        C  0.25112025  0.66985889  0.99247096    -0.55100
C288        C  0.24840067  0.65270984  0.96631329     0.08900
C289        C  0.22255754  0.63056017  0.02055217    -0.54700
C290        C  0.22004895  0.61373580  0.99425305     0.09400
H291        H  0.30439077  0.62685301  0.03079317     0.13900
H292        H  0.24633793  0.60454719  0.94991007    -0.00300
H293        H  0.25123226  0.69449950  0.99136310     0.14200
H294        H  0.20371355  0.63032335  0.03847020     0.14000
C295        C  0.15458891  0.52533932  0.74778415     0.85800
C296        C  0.13419088  0.51987304  0.77701765    -0.54400
C297        C  0.11686339  0.49337177  0.77733895     0.08800
C298        C  0.12158461  0.47415686  0.74734801     0.19700
C299        C  0.17692412  0.49632497  0.74528734    -0.55100
C300        C  0.15978500  0.46960132  0.74524791     0.08900
C301        C  0.13055429  0.52201618  0.72093379    -0.54700
C302        C  0.11314323  0.49570944  0.72017836     0.09400
H303        H  0.13541471  0.53472919  0.79704020     0.13900
H304        H  0.10766887  0.45248771  0.74716565    -0.00300
H305        H  0.20373570  0.49604686  0.74364719     0.14200
H306        H  0.12897942  0.53857544  0.70258400     0.14000
C307        C  0.72954306  0.17403575  0.45202578     0.85800
C308        C  0.69831950  0.15423240  0.45810439    -0.54400
C309        C  0.70258931  0.13274169  0.48060123     0.08800
C310        C  0.73782623  0.13254112  0.49419496     0.19700
C311        C  0.73784675  0.18687908  0.48386723    -0.55100
C312        C  0.74125371  0.16523447  0.50597671     0.08900
C313        C  0.75737146  0.15050173  0.44481605    -0.54700
C314        C  0.76249626  0.12944476  0.46711598     0.09400
H315        H  0.67439229  0.15745191  0.44730303     0.13900
H316        H  0.74178430  0.11527123  0.51232055    -0.00300
H317        H  0.73827519  0.21119762  0.48895116     0.14200
H318        H  0.77399507  0.15231002  0.42524629     0.14000
C319        C  0.01305113  0.78265926  0.41401529     0.85800
C320        C  0.98076493  0.78527106  0.39584406    -0.54400
C321        C  0.97419983  0.76157995  0.37653952     0.08800
C322        C  0.00231638  0.73671866  0.37655027     0.19700
C323        C  0.01209240  0.75130968  0.42993514    -0.55100
C324        C  0.00673372  0.72710749  0.41034655     0.08900
C325        C  0.04014098  0.77754538  0.38931149    -0.54700
C326        C  0.03451218  0.75382907  0.36982604     0.09400
H327        H  0.96462907  0.80536036  0.39771242     0.13900
H328        H  0.99866295  0.71721646  0.36066835    -0.00300
H329        H  0.01776296  0.74817903  0.45396809     0.14200
H330        H  0.06371268  0.78901612  0.38840999     0.14000
Zr331      Zr  0.29542964  0.72418795  0.21252963     2.17500
O332        O  0.34865966  0.70010703  0.19838465    -0.52000
O333        O  0.28092693  0.70714414  0.16067377    -0.75200
O334        O  0.30207376  0.67132857  0.22949284    -0.82000
O335        O  0.33737474  0.80296284  0.19960658    -0.83700
O336        O  0.25786673  0.65842380  0.25894773    -0.79300
O337        O  0.34397917  0.75139086  0.19673668    -0.91000
O338        O  0.23123841  0.72838149  0.14747931    -0.76900
O339        O  0.23798292  0.71248630  0.21262907    -0.86400
O340        O  0.26869606  0.76778298  0.19041485    -0.86100
O341        O  0.28257357  0.71744999  0.26595525    -0.72900
O342        O  0.30913818  0.76808259  0.24329575    -0.85000
Zr343      Zr  0.21004459  0.79262421  0.27534181     2.26400
Zr344      Zr  0.22435406  0.70605842  0.26583645     2.06300
Zr345      Zr  0.28134818  0.81176260  0.22174593     2.10000
Zr346      Zr  0.21106974  0.75659222  0.19166749     1.78800
O347        O  0.31713478  0.84964916  0.24509292    -0.93800
O348        O  0.16668308  0.72056037  0.18222426    -0.41600
O349        O  0.22323199  0.80045625  0.22250486    -0.78300
O350        O  0.19533856  0.74941364  0.24396439    -0.97000
O351        O  0.23753707  0.74959436  0.29730542    -0.90300
O352        O  0.26735031  0.80493163  0.27476010    -0.93100
C353        C  0.25712152  0.71193993  0.14167380     1.00700
C354        C  0.35457809  0.77854376  0.19328443     1.13600
C355        C  0.28603859  0.65217869  0.24581249     1.04400
O356        O  0.18604207  0.67179156  0.24034736    -0.95300
O357        O  0.17237771  0.71357331  0.29477075    -0.91000
O358        O  0.16438282  0.76499343  0.29741350    -0.84100
C359        C  0.15542937  0.73759137  0.30266804     1.11000
O360        O  0.35182014  0.74145436  0.29640364    -0.97200
Zr361      Zr  0.29495321  0.76151204  0.29597477     1.88900
O362        O  0.22309588  0.80659935  0.32775239    -0.73900
O363        O  0.22384075  0.67737500  0.31339165    -0.53100
O364        O  0.30244155  0.72398880  0.33630690    -0.97800
O365        O  0.33409219  0.80103528  0.31011015    -0.55000
O366        O  0.27106697  0.78318260  0.34225443    -0.74400
C367        C  0.24510014  0.79960801  0.34773958     0.98000
O368        O  0.16111218  0.82491524  0.28583962    -0.63200
O369        O  0.28024874  0.83671835  0.17207733    -0.58000
O370        O  0.20366500  0.84560702  0.25919673    -0.94700
O371        O  0.24780570  0.85951522  0.23016780    -0.93100
O372        O  0.21027546  0.79197426  0.14901641    -0.93500
O373        O  0.15744902  0.78180480  0.18351898    -0.92300
C374        C  0.21990026  0.86559659  0.24405738     1.16800
H375        H  0.27631724  0.77056625  0.16966099     0.32700
H376        H  0.17163491  0.74632926  0.24397124     0.43600
H377        H  0.27127268  0.82331711  0.28652258     0.37100
H378        H  0.29561240  0.70147079  0.27537606     0.33600
H379        H  0.16008110  0.72401931  0.16069192     0.25400
H380        H  0.21690307  0.65657362  0.30742899     0.31300
H381        H  0.31876663  0.73312105  0.35045104     0.37200
H382        H  0.21983605  0.81094564  0.15742919     0.31700
H383        H  0.29586906  0.85382106  0.17422070     0.30600
H384        H  0.32432038  0.86254943  0.22786007     0.32300
H385        H  0.32037727  0.81790407  0.31903122     0.31200
H386        H  0.15134202  0.79066910  0.20377129     0.35200
H387        H  0.14238001  0.81520659  0.27506317     0.27900
H388        H  0.34338058  0.68122260  0.18688365     0.32200
H389        H  0.35451262  0.73057439  0.27652108     0.35000
H390        H  0.29160724  0.82227103  0.15774325     0.27600
H391        H  0.15618009  0.82262253  0.30794939     0.40500
H392        H  0.16428620  0.68271646  0.24099331     0.30600
H393        H  0.17791531  0.70027255  0.18181468     0.38200
H394        H  0.34210473  0.80903146  0.29030914     0.30000
H395        H  0.24753424  0.67501663  0.31910274     0.30100
H396        H  0.35887515  0.69313650  0.21776121     0.30400
C397        C  0.23675875  0.85758763  0.46838122     0.85800
C398        C  0.26577321  0.87949381  0.46841211    -0.54400
C399        C  0.26862636  0.89684156  0.49410983     0.08800
C400        C  0.24136696  0.89071062  0.51839961     0.19700
C401        C  0.24187351  0.83869788  0.49810449    -0.55100
C402        C  0.24374338  0.85614488  0.52442783     0.08900
C403        C  0.20568870  0.87687022  0.47578367    -0.54700
C404        C  0.20763322  0.89398886  0.50191983     0.09400
H405        H  0.28397361  0.87998702  0.44991702     0.13900
H406        H  0.24359407  0.90519893  0.53925375    -0.00300
H407        H  0.24147968  0.81404896  0.49920814     0.14200
H408        H  0.18271617  0.87479946  0.46304776     0.14000
C409        C  0.88854356  0.51319975  0.27251694     0.85800
C410        C  0.87007300  0.48311927  0.27167420    -0.54400
C411        C  0.85037930  0.47861621  0.24677569     0.08800
C412        C  0.85104343  0.50588877  0.22392624     0.19700
C413        C  0.90770688  0.51412774  0.24178233    -0.55100
C414        C  0.88826938  0.51046069  0.21622192     0.08900
C415        C  0.86116976  0.53792154  0.26864511    -0.54700
C416        C  0.84176146  0.53451801  0.24335988     0.09400
H417        H  0.87288376  0.46624102  0.28961136     0.13900
H418        H  0.83507214  0.50294831  0.20347620    -0.00300
H419        H  0.93419820  0.51830372  0.24035452     0.14200
H420        H  0.85968999  0.55900822  0.28173746     0.14000
Zr421      Zr  0.77569746  0.29168078  0.20032348     2.17500
O422        O  0.76990660  0.33271542  0.16314128    -0.52000
O423        O  0.83296405  0.28318213  0.18563517    -0.75200
O424        O  0.79393849  0.34152422  0.21910687    -0.82000
O425        O  0.73917491  0.23594825  0.13999175    -0.83700
O426        O  0.78478121  0.34390145  0.27038150    -0.79300
O427        O  0.76724201  0.28023426  0.14701617    -0.91000
O428        O  0.85198378  0.24207663  0.21156265    -0.76900
O429        O  0.80115526  0.27861563  0.24768017    -0.86400
O430        O  0.78280160  0.23739337  0.19778754    -0.86100
O431        O  0.73700566  0.30933789  0.23863285    -0.72900
O432        O  0.72218439  0.26989269  0.19161825    -0.85000
Zr433      Zr  0.71507026  0.22074901  0.27627331     2.26400
Zr434      Zr  0.76180740  0.29471286  0.28654908     2.06300
Zr435      Zr  0.72895951  0.21511789  0.19121988     2.10000
Zr436      Zr  0.80789980  0.22452392  0.24505385     1.78800
O437        O  0.67640457  0.20940022  0.16440885    -0.93800
O438        O  0.85346217  0.23430274  0.28019148    -0.41600
O439        O  0.75423664  0.20215163  0.23885308    -0.78300
O440        O  0.76970607  0.24035759  0.28463323    -0.97000
O441        O  0.70783646  0.27463089  0.27807230    -0.90300
O442        O  0.68985858  0.23297933  0.22882996    -0.93100
C443        C  0.85555365  0.26332700  0.19179291     1.00700
C444        C  0.75377931  0.25993500  0.13006427     1.13600
C445        C  0.79428150  0.35590525  0.24494510     1.04400
O446        O  0.81165114  0.30249635  0.31684178    -0.95300
O447        O  0.74952003  0.27179230  0.33730457    -0.91000
O448        O  0.70972634  0.23678832  0.32836486    -0.84100
C449        C  0.72826269  0.25188812  0.34637025     1.11000
O450        O  0.67633558  0.32871076  0.19370877    -0.97200
Zr451      Zr  0.68404023  0.28730516  0.23000133     1.88900
O452        O  0.65632051  0.22915346  0.28695672    -0.73900
O453        O  0.73101934  0.33375228  0.31562004    -0.53100
O454        O  0.66140533  0.33545319  0.24994904    -0.97800
O455        O  0.63720819  0.27230558  0.19825670    -0.55000
O456        O  0.64294468  0.27576740  0.26775057    -0.74400
C457        C  0.63705835  0.25264397  0.28436355     0.98000
O458        O  0.72843558  0.18026980  0.31265941    -0.63200
O459        O  0.75750814  0.17640270  0.15994336    -0.58000
O460        O  0.69709413  0.17076633  0.26094217    -0.94700
O461        O  0.70972787  0.16454203  0.21043521    -0.93100
O462        O  0.82669552  0.17919138  0.21672832    -0.93500
O463        O  0.82168361  0.18296392  0.27973312    -0.92300
C464        C  0.69924029  0.15435264  0.23653829     1.16800
H465        H  0.79691577  0.23128185  0.18076110     0.32700
H466        H  0.77839569  0.23293320  0.30381862     0.43600
H467        H  0.66875866  0.22301507  0.22658524     0.37100
H468        H  0.73384387  0.33119596  0.23766288     0.33600
H469        H  0.87353428  0.22600371  0.26958836     0.25400
H470        H  0.72691464  0.35043967  0.30090172     0.31300
H471        H  0.67343961  0.33885521  0.26937751     0.37200
H472        H  0.80786486  0.16497968  0.21784232     0.31700
H473        H  0.76800447  0.16238165  0.17483127     0.30600
H474        H  0.66833958  0.18903278  0.17022773     0.32300
H475        H  0.62318377  0.29101950  0.19668689     0.31200
H476        H  0.80380475  0.16797167  0.27681422     0.35200
H477        H  0.74242318  0.16542454  0.30091817     0.27900
H478        H  0.79225915  0.34161809  0.16094910     0.32200
H479        H  0.68477219  0.32037966  0.17393122     0.35000
H480        H  0.73942659  0.16442101  0.15066225     0.27600
H481        H  0.74422356  0.18913194  0.32748100     0.40500
H482        H  0.81799635  0.28187349  0.32410930     0.30600
H483        H  0.85617727  0.25671233  0.27990043     0.38200
H484        H  0.62395799  0.25853672  0.21117647     0.30000
H485        H  0.70884254  0.32491286  0.31911689     0.30100
H486        H  0.75600599  0.34881352  0.17320900     0.30400
C487        C  0.60341495  0.00748759  0.29521672     0.85800
C488        C  0.62497710  0.03593485  0.29088205    -0.54400
C489        C  0.64517767  0.03534125  0.26546477     0.08800
C490        C  0.64185047  0.00591417  0.24603170     0.19700
C491        C  0.58438347  0.00570890  0.26429329    -0.55100
C492        C  0.60435625  0.00513035  0.23855639     0.08900
C493        C  0.62790220  0.98010032  0.29344647    -0.54700
C494        C  0.64800759  0.97883915  0.26807446     0.09400
H495        H  0.62241408  0.05611250  0.30538921     0.13900
H496        H  0.65831073  0.00553448  0.22555315    -0.00300
H497        H  0.55761072  0.00614383  0.26218491     0.14200
H498        H  0.62837841  0.96227989  0.31057675     0.14000
C499        C  0.48582769  0.21210845  0.92571246     0.85800
C500        C  0.51268855  0.20294548  0.90202803    -0.54400
C501        C  0.51787355  0.22399103  0.87981756     0.08800
C502        C  0.49417696  0.25203675  0.88202905     0.19700
C503        C  0.49492812  0.24404372  0.93712830    -0.55100
C504        C  0.49912233  0.26491112  0.91453183     0.08900
C505        C  0.45460163  0.21791386  0.90557326    -0.54700
C506        C  0.45869953  0.23926832  0.88312095     0.09400
H507        H  0.52731925  0.18194025  0.90316100     0.13900
H508        H  0.49829474  0.26901747  0.86373084    -0.00300
H509        H  0.49615047  0.25010774  0.96128397     0.14200
H510        H  0.43115653  0.20647998  0.90806741     0.14000
Zr511      Zr  0.20157091  0.27298730  0.72042292     2.17500
O512        O  0.14546867  0.29389050  0.72822071    -0.52000
O513        O  0.20721851  0.28781403  0.66797783    -0.75200
O514        O  0.20190130  0.32792843  0.72553334    -0.82000
O515        O  0.16458904  0.19473192  0.70269987    -0.83700
O516        O  0.24617534  0.34211474  0.75406590    -0.79300
O517        O  0.15587152  0.24611144  0.69851736    -0.91000
O518        O  0.25604353  0.26709749  0.65053379    -0.76900
O519        O  0.25851485  0.28630803  0.71644622    -0.86400
O520        O  0.22816182  0.22982304  0.69656730    -0.86100
O521        O  0.21875206  0.28417894  0.77150647    -0.72900
O522        O  0.19003504  0.23021220  0.75193426    -0.85000
Zr523      Zr  0.29257498  0.21117674  0.77759934     2.26400
Zr524      Zr  0.27713578  0.29555291  0.76780135     2.06300
Zr525      Zr  0.21864977  0.18710259  0.72920334     2.10000
Zr526      Zr  0.28500519  0.24316416  0.69311600     1.78800
O527        O  0.18051612  0.15346332  0.75549290    -0.93800
O528        O  0.32246912  0.28297410  0.67652652    -0.41600
O529        O  0.27615592  0.20046342  0.72591464    -0.78300
O530        O  0.30489332  0.25251624  0.74412065    -0.97000
O531        O  0.26524055  0.25391849  0.80052324    -0.90300
O532        O  0.23563053  0.19721876  0.78087051    -0.93100
C533        C  0.22889579  0.28250095  0.64703190     1.00700
C534        C  0.14730158  0.21841615  0.69437942     1.13600
C535        C  0.21955415  0.34818661  0.73878034     1.04400
O536        O  0.31721213  0.32914369  0.74415147    -0.95300
O537        O  0.32937446  0.28823313  0.79727208    -0.91000
O538        O  0.33754332  0.23702606  0.80202324    -0.84100
C539        C  0.34590198  0.26461497  0.80680500     1.11000
O540        O  0.14938689  0.25506328  0.80651018    -0.97200
Zr541      Zr  0.20809881  0.24100884  0.80256574     1.88900
O542        O  0.28588266  0.20136082  0.83204458    -0.73900
O543        O  0.27311032  0.32564356  0.81495713    -0.53100
O544        O  0.19584197  0.28157922  0.83966505    -0.97800
O545        O  0.17656645  0.20032012  0.82631662    -0.55000
O546        O  0.23985613  0.22815046  0.84650242    -0.74400
C547        C  0.26579005  0.21219299  0.85249484     0.98000
O548        O  0.34628249  0.18495963  0.77115746    -0.63200
O549        O  0.22118643  0.15519457  0.68317359    -0.58000
O550        O  0.29502856  0.15709425  0.77210807    -0.94700
O551        O  0.25467450  0.14169049  0.73956744    -0.93100
O552        O  0.28871214  0.20491892  0.65233620    -0.93500
O553        O  0.34154421  0.22450785  0.68355082    -0.92300
C554        C  0.28036224  0.13653511  0.75665063     1.16800
H555        H  0.21906462  0.22584542  0.67650113     0.32700
H556        H  0.32862066  0.25567797  0.74327320     0.43600
H557        H  0.23303165  0.17948388  0.79358768     0.37100
H558        H  0.20628907  0.30147297  0.77970449     0.33600
H559        H  0.32755543  0.27796544  0.65480975     0.25400
H560        H  0.28912964  0.34230187  0.81210893     0.31300
H561        H  0.21450853  0.29585629  0.83764012     0.37200
H562        H  0.28111962  0.18586047  0.66193451     0.31700
H563        H  0.20118325  0.14238799  0.68436957     0.30600
H564        H  0.19034792  0.13272415  0.75288732     0.32300
H565        H  0.19231826  0.18954008  0.83999969     0.31200
H566        H  0.34375040  0.20595048  0.69619948     0.35200
H567        H  0.36119335  0.19994535  0.76159369     0.27900
H568        H  0.14108754  0.30690102  0.71021021     0.32200
H569        H  0.14592346  0.27058836  0.79045681     0.35000
H570        H  0.21664324  0.16930471  0.66605317     0.27600
H571        H  0.35512722  0.18187644  0.79206790     0.40500
H572        H  0.33451579  0.31520827  0.73542651     0.30600
H573        H  0.30843745  0.30173459  0.67564324     0.38200
H574        H  0.17234774  0.18554037  0.80955312     0.30000
H575        H  0.25100163  0.33589178  0.81427720     0.30100
H576        H  0.14687467  0.30830808  0.74576129     0.30400
C577        C  0.99566182  0.28648103  0.60051201     0.85800
C578        C  0.02825034  0.27817475  0.61748737    -0.54400
C579        C  0.02651053  0.25265199  0.63525748     0.08800
C580        C  0.99150345  0.23902330  0.63621975     0.19700
C581        C  0.98574168  0.25676492  0.58383435    -0.55100
C582        C  0.98382166  0.23195797  0.60256625     0.08900
C583        C  0.97041913  0.29029324  0.62682648    -0.54700
C584        C  0.96715396  0.26536123  0.64488774     0.09400
H585        H  0.05084172  0.29115230  0.61649105     0.13900
H586        H  0.98955247  0.21895204  0.65144692    -0.00300
H587        H  0.98193981  0.25531733  0.55925263     0.14200
H588        H  0.95354619  0.30983156  0.62883219     0.14000
C589        C  0.00063326  0.22241703  0.07223663     0.85800
C590        C  0.96893763  0.22572357  0.09199749    -0.54400
C591        C  0.96838212  0.25102150  0.11054297     0.08800
C592        C  0.99944792  0.27071139  0.10787475     0.19700
C593        C  0.00335156  0.25207700  0.05508683    -0.55100
C594        C  0.00255483  0.27741335  0.07315240     0.08900
C595        C  0.02871610  0.22305894  0.09611109    -0.54700
C596        C  0.02794744  0.24783426  0.11541336     0.09400
H597        H  0.94954732  0.20887284  0.09297516     0.13900
H598        H  0.99821983  0.29137231  0.12277695    -0.00300
H599        H  0.00531695  0.25299198  0.03025081     0.14200
H600        H  0.04730297  0.20500012  0.09790153     0.14000
Zr601      Zr  0.03737110  0.04175388  0.04078877     2.17500
O602        O  0.02594651  0.07835606  0.08222805    -0.52000
O603        O  0.09422673  0.05797697  0.03301065    -0.75200
O604        O  0.05772198  0.02444046  0.09014572    -0.82000
O605        O  0.99721121  0.09887527  0.98432871    -0.83700
O606        O  0.05289587  0.97290602  0.09267438    -0.79300
O607        O  0.02751121  0.09427389  0.02813288    -0.91000
O608        O  0.11194698  0.03589233  0.98836158    -0.76900
O609        O  0.06472223  0.99464446  0.02851481    -0.86400
O610        O  0.04488315  0.04342603  0.98662549    -0.86100
O611        O  0.00015961  0.00335322  0.05831711    -0.72900
O612        O  0.98354367  0.04814556  0.01803050    -0.85000
Zr613      Zr  0.98079997  0.96364775  0.96818922     2.26400
Zr614      Zr  0.02695343  0.95564668  0.04413119     2.06300
Zr615      Zr  0.99126859  0.04777051  0.96331800     2.10000
Zr616      Zr  0.07227751  0.99651659  0.97444995     1.78800
O617        O  0.94241290  0.07940569  0.95258019    -0.93800
O618        O  0.12136026  0.96754520  0.99044368    -0.41600
O619        O  0.01878014  0.00073120  0.95024091    -0.78300
O620        O  0.03543000  0.95661744  0.98953309    -0.97000
O621        O  0.97284041  0.96214895  0.02219252    -0.90300
O622        O  0.95367162  0.01041784  0.98078264    -0.93100
C623        C  0.11505418  0.05478493  0.01082493     1.00700
C624        C  0.01205178  0.10983683  0.00783768     1.13600
C625        C  0.06090942  0.99901248  0.10432245     1.04400
O626        O  0.07601835  0.92279840  0.04923040    -0.95300
O627        O  0.01214138  0.90405690  0.02474245    -0.91000
O628        O  0.98062451  0.91165546  0.98233895    -0.84100
C629        C  0.99408976  0.89449114  0.00226006     1.11000
O630        O  0.93324900  0.05020152  0.07200028    -0.97200
Zr631      Zr  0.94681833  0.00970363  0.03504828     1.88900
O632        O  0.92258875  0.95237756  0.97499612    -0.73900
O633        O  0.99848746  0.93004972  0.08580630    -0.53100
O634        O  0.93006630  0.98703480  0.08335127    -0.97800
O635        O  0.89695487  0.03894639  0.02121460    -0.55000
O636        O  0.90597981  0.97296983  0.02063499    -0.74400
C637        C  0.90145448  0.95646674  0.99677858     0.98000
O638        O  0.99315400  0.93007781  0.92450039    -0.63200
O639        O  0.02468722  0.07093368  0.92328905    -0.58000
O640        O  0.95674426  0.97851685  0.91996343    -0.94700
O641        O  0.96534374  0.02942621  0.91540266    -0.93100
O642        O  0.08551119  0.01842539  0.92489203    -0.93500
O643        O  0.09309550  0.95894913  0.93731269    -0.92300
C644        C  0.95461387  0.00361595  0.90529072     1.16800
H645        H  0.05751813  0.06089046  0.98052118     0.32700
H646        H  0.04483411  0.93727794  0.98261977     0.43600
H647        H  0.93257523  0.01244817  0.97046290     0.37100
H648        H  0.99722099  0.00477295  0.08028562     0.33600
H649        H  0.13470456  0.98199011  0.00263807     0.25400
H650        H  0.01563602  0.91630028  0.09466785     0.31300
H651        H  0.93430529  0.96486466  0.08042573     0.37200
H652        H  0.08608601  0.04071838  0.92871519     0.31700
H653        H  0.00879007  0.07571156  0.90669766     0.30600
H654        H  0.95043289  0.09514484  0.93832246     0.32300
H655        H  0.88689917  0.02782857  0.00382095     0.31200
H656        H  0.07389987  0.95495565  0.92382326     0.35200
H657        H  0.01201072  0.91683815  0.93094483     0.27900
H658        H  0.04757112  0.08208671  0.09222493     0.32200
H659        H  0.91110333  0.04519815  0.08040666     0.35000
H660        H  0.03095273  0.09110701  0.93165004     0.27600
H661        H  0.97398141  0.91626238  0.92292123     0.40500
H662        H  0.09327866  0.93619479  0.05784455     0.30600
H663        H  0.11294697  0.95290374  0.00563255     0.38200
H664        H  0.90544123  0.05791122  0.01207769     0.30000
H665        H  0.99461251  0.94602752  0.10168610     0.30100
H666        H  0.01266759  0.06723828  0.09754295     0.30400
Zr667      Zr  0.21389437  0.22976661  0.21448908     2.17500
O668        O  0.21755270  0.18764777  0.17743491    -0.52000
O669        O  0.15610800  0.23774069  0.19996626    -0.75200
O670        O  0.19715641  0.18067691  0.23451210    -0.82000
O671        O  0.25806947  0.27625699  0.15208524    -0.83700
O672        O  0.20461487  0.18045847  0.28592314    -0.79300
O673        O  0.22594417  0.23514239  0.16138713    -0.91000
O674        O  0.13782362  0.28273026  0.22044474    -0.76900
O675        O  0.18688625  0.24667617  0.26023506    -0.86400
O676        O  0.20747582  0.28350167  0.20776211    -0.86100
O677        O  0.25185589  0.21479182  0.25395121    -0.72900
O678        O  0.26843357  0.24988055  0.20620323    -0.85000
Zr679      Zr  0.27228707  0.30638379  0.28764838     2.26400
Zr680      Zr  0.22492679  0.23234698  0.30030042     2.06300
Zr681      Zr  0.26190744  0.30423945  0.20124520     2.10000
Zr682      Zr  0.18144598  0.30071487  0.25378006     1.78800
O683        O  0.31058678  0.31420978  0.16969290    -0.93800
O684        O  0.13374560  0.29544821  0.28782072    -0.41600
O685        O  0.23556290  0.32202022  0.24751669    -0.78300
O686        O  0.21745895  0.28671584  0.29492928    -0.97000
O687        O  0.27954008  0.25259694  0.29314340    -0.90300
O688        O  0.29896952  0.29005602  0.24148173    -0.93100
C689        C  0.13415244  0.25913883  0.20330977     1.00700
C690        C  0.24271453  0.25198844  0.14357316     1.13600
C691        C  0.19623452  0.16720682  0.26044509     1.04400
O692        O  0.17370184  0.22547203  0.32918334    -0.95300
O693        O  0.23291659  0.25974975  0.35004880    -0.91000
O694        O  0.26907352  0.29831691  0.34187005    -0.84100
C695        C  0.25065675  0.28245187  0.35931716     1.11000
O696        O  0.31560663  0.18997927  0.21613157    -0.97200
Zr697      Zr  0.30546784  0.23633132  0.24644816     1.88900
O698        O  0.33009911  0.29977861  0.30173506    -0.73900
O699        O  0.25408175  0.19496146  0.33171541    -0.53100
O700        O  0.32800484  0.19487241  0.27734925    -0.97800
O701        O  0.34974578  0.24539717  0.20930910    -0.55000
O702        O  0.34928498  0.25723873  0.27705129    -0.74400
C703        C  0.35299072  0.28000901  0.29518606     0.98000
O704        O  0.25834726  0.35174273  0.31858263    -0.63200
O705        O  0.22794668  0.34010850  0.17204077    -0.58000
O706        O  0.29568064  0.35265776  0.26786154    -0.94700
O707        O  0.28662466  0.35375293  0.21668324    -0.93100
O708        O  0.16557357  0.34375158  0.22176580    -0.93500
O709        O  0.17009263  0.34598260  0.28519712    -0.92300
C710        C  0.29735424  0.36587425  0.24187753     1.16800
H711        H  0.19408014  0.28812206  0.19005223     0.32700
H712        H  0.20760463  0.29558196  0.31323307     0.43600
H713        H  0.32018306  0.29974349  0.23882848     0.37100
H714        H  0.25531957  0.19293438  0.25403586     0.33600
H715        H  0.12051083  0.27885395  0.27870801     0.25400
H716        H  0.27140536  0.20664973  0.34249564     0.31300
H717        H  0.33099426  0.20380898  0.29806150     0.37200
H718        H  0.14174309  0.34760157  0.22644386     0.31700
H719        H  0.24156935  0.35863869  0.17043921     0.30600
H720        H  0.30569700  0.33411836  0.15998355     0.32300
H721        H  0.36272068  0.26241760  0.21792133     0.31200
H722        H  0.19027784  0.35843539  0.28311695     0.35200
H723        H  0.25058437  0.36743803  0.30397332     0.27900
H724        H  0.19514946  0.17866581  0.17650108     0.32200
H725        H  0.34003668  0.18812745  0.21359171     0.35000
H726        H  0.22770112  0.33156859  0.15095908     0.27600
H727        H  0.23789228  0.34662844  0.33002881     0.40500
H728        H  0.16899107  0.24555031  0.33901920     0.30600
H729        H  0.14309364  0.28651920  0.30672391     0.38200
H730        H  0.33825845  0.25432241  0.19140624     0.30000
H731        H  0.23786386  0.18978019  0.34791991     0.30100
H732        H  0.23207805  0.17180880  0.18671879     0.30400
C733        C  0.10484806  0.01143244  0.28612893     0.85800
C734        C  0.12702402  0.03944218  0.28632280    -0.54400
C735        C  0.14900203  0.04125477  0.26259536     0.08800
C736        C  0.14684882  0.01347198  0.23972051     0.19700
C737        C  0.08807109  0.01230617  0.25420067    -0.55100
C738        C  0.10988040  0.01306437  0.22986369     0.08900
C739        C  0.12898995  0.98382860  0.28363419    -0.54700
C740        C  0.15069299  0.98400611  0.25930666     0.09400
H741        H  0.12437993  0.05748005  0.30349003     0.13900
H742        H  0.16445181  0.01441880  0.22008463    -0.00300
H743        H  0.06155009  0.01100728  0.25050366     0.14200
H744        H  0.12738375  0.96447386  0.29891676     0.14000
Zr745      Zr  0.94127773  0.03929303  0.53858097     2.17500
O746        O  0.88517247  0.04547683  0.55972018    -0.52000
O747        O  0.95150090  0.09169091  0.55563802    -0.75200
O748        O  0.93623552  0.02535776  0.59293752    -0.82000
O749        O  0.90824753  0.05935352  0.45852510    -0.83700
O750        O  0.97726271  0.99162928  0.60509920    -0.79300
O751        O  0.89607910  0.06132186  0.50952557    -0.91000
O752        O  0.00412106  0.10326477  0.54131948    -0.76900
O753        O  0.99797355  0.03873730  0.55388080    -0.86400
O754        O  0.97071758  0.06214663  0.49720084    -0.86100
O755        O  0.95507413  0.98609315  0.54509374    -0.72900
O756        O  0.93091972  0.00908111  0.49316500    -0.85000
Zr757      Zr  0.03242366  0.97830730  0.47449645     2.26400
Zr758      Zr  0.01278215  0.98572992  0.55968377     2.06300
Zr759      Zr  0.96152042  0.03162892  0.45191844     2.10000
Zr760      Zr  0.02737126  0.06095608  0.51237207     1.78800
O761        O  0.92338273  0.01117248  0.41405809    -0.93800
O762        O  0.06788149  0.06985447  0.55267366    -0.41600
O763        O  0.01855444  0.03107356  0.46705812    -0.78300
O764        O  0.04356547  0.00901113  0.51905395    -0.97000
O765        O  0.00289785  0.95502792  0.51501918    -0.90300
O766        O  0.97604609  0.97874683  0.45832494    -0.93100
C767        C  0.97637053  0.10964840  0.55453135     1.00700
C768        C  0.88951475  0.06713725  0.48144580     1.13600
C769        C  0.95087832  0.00730707  0.61195257     1.04400
O770        O  0.04773191  0.00724954  0.59958699    -0.95300
O771        O  0.06741138  0.96017741  0.55503017    -0.91000
O772        O  0.07762476  0.95715372  0.50376489    -0.84100
C773        C  0.08550331  0.95258297  0.53167556     1.11000
O774        O  0.88759347  0.95410883  0.51339252    -0.97200
Zr775      Zr  0.94628504  0.95644240  0.49968338     1.88900
O776        O  0.02326588  0.92483599  0.46198960    -0.73900
O777        O  0.01076168  0.93542925  0.58286256    -0.53100
O778        O  0.93599718  0.91794980  0.53835690    -0.97800
O779        O  0.91293596  0.93826346  0.45690501    -0.55000
O780        O  0.97402592  0.91023976  0.48165137    -0.74400
C781        C  0.00163371  0.90446717  0.46787033     0.98000
O782        O  0.08515466  0.97418917  0.44657983    -0.63200
O783        O  0.96819684  0.07898065  0.42386031    -0.58000
O784        O  0.04011241  0.99183888  0.42133877    -0.94700
O785        O  0.99766421  0.02287054  0.40611487    -0.93100
O786        O  0.03212497  0.10468237  0.47868698    -0.93500
O787        O  0.08367368  0.06637267  0.49258258    -0.92300
C788        C  0.02534340  0.00810591  0.40108093     1.16800
H789        H  0.96300397  0.08289984  0.49409524     0.32700
H790        H  0.06698980  0.00942512  0.52362603     0.43600
H791        H  0.97376687  0.96746223  0.43936800     0.37100
H792        H  0.94125220  0.97714716  0.56062611     0.33600
H793        H  0.07202988  0.09205581  0.55207099     0.25400
H794        H  0.01194703  0.93923242  0.60522190     0.31300
H795        H  0.92830950  0.89991017  0.52671079     0.37200
H796        H  0.04670647  0.11898544  0.48978676     0.31700
H797        H  0.94693992  0.08207614  0.41288402     0.30600
H798        H  0.91463801  0.02930772  0.40314613     0.32300
H799        H  0.90648357  0.91740224  0.46281381     0.31200
H800        H  0.08702958  0.04866824  0.47855876     0.35200
H801        H  0.10150856  0.98566798  0.45884064     0.27900
H802        H  0.88702387  0.06012450  0.57703779     0.32200
H803        H  0.87787865  0.97387857  0.50677791     0.35000
H804        H  0.96825946  0.09529178  0.43970562     0.27600
H805        H  0.09244132  0.95251259  0.44768929     0.40500
H806        H  0.03343372  0.02259076  0.61034309     0.30600
H807        H  0.05549034  0.06695617  0.57205451     0.38200
H808        H  0.92866374  0.93494245  0.43963660     0.30000
H809        H  0.98776132  0.92857747  0.57934363     0.30100
H810        H  0.87957700  0.02573711  0.56916412     0.30400
C811        C  0.26399124  0.17182835  0.97826815     0.85800
C812        C  0.23125858  0.15402869  0.97872388    -0.54400
C813        C  0.22340994  0.14089202  0.00611553     0.08800
C814        C  0.24930071  0.14764797  0.03110302     0.19700
C815        C  0.26196570  0.19485221  0.00462077    -0.55100
C816        C  0.25353181  0.18264214  0.03190953     0.08900
C817        C  0.28988028  0.14836817  0.98947190    -0.54700
C818        C  0.28184085  0.13534957  0.01676929     0.09400
H819        H  0.21699158  0.15033577  0.95800339     0.13900
H820        H  0.24346983  0.13829815  0.05394573    -0.00300
H821        H  0.26815833  0.21873049  0.00240751     0.14200
H822        H  0.31179725  0.14069834  0.97697566     0.14000
Zr823      Zr  0.45001856  0.03797528  0.98733938     2.17500
O824        O  0.43421272  0.07706193  0.95033709    -0.52000
O825        O  0.39294920  0.04602996  0.00439864    -0.75200
O826        O  0.43204999  0.01816646  0.93769162    -0.82000
O827        O  0.49626651  0.10181675  0.03064144    -0.83700
O828        O  0.44476364  0.96769611  0.93449477    -0.79300
O829        O  0.46189177  0.09116485  0.99092393    -0.91000
O830        O  0.38427041  0.02541826  0.05123130    -0.76900
O831        O  0.43050780  0.99044885  0.00485607    -0.86400
O832        O  0.45072724  0.04264198  0.04184711    -0.86100
O833        O  0.49023413  0.00239251  0.96643986    -0.72900
O834        O  0.50604605  0.04934500  0.00175141    -0.85000
Zr835      Zr  0.52663231  0.96707090  0.05352478     2.26400
Zr836      Zr  0.47041152  0.95431662  0.98414661     2.06300
Zr837      Zr  0.50690879  0.05268991  0.05649837     2.10000
Zr838      Zr  0.43283331  0.99433757  0.05964587     1.78800
O839        O  0.55382640  0.08666601  0.06219671    -0.93800
O840        O  0.38792183  0.95808754  0.05416219    -0.41600
O841        O  0.48864023  0.00433526  0.07453042    -0.78300
O842        O  0.47032116  0.95658823  0.03943014    -0.97000
O843        O  0.52678422  0.96407228  0.99903849    -0.90300
O844        O  0.54620525  0.01533243  0.03728062    -0.93100
C845        C  0.37527912  0.04147955  0.02842426     1.00700
C846        C  0.47874911  0.10962286  0.00717391     1.13600
C847        C  0.43298874  0.99267497  0.92294680     1.04400
O848        O  0.41930097  0.92536535  0.98236604    -0.95300
O849        O  0.48503585  0.90424301  0.00505732    -0.91000
O850        O  0.51958929  0.91278837  0.04521102    -0.84100
C851        C  0.50332647  0.89512954  0.02739597     1.11000
O852        O  0.54660756  0.04490545  0.93769224    -0.97200
Zr853      Zr  0.54560480  0.01263814  0.98288022     1.88900
O854        O  0.58274279  0.95526099  0.03669283    -0.73900
O855        O  0.49653298  0.92386836  0.94338270    -0.53100
O856        O  0.56499199  0.98497452  0.93735216    -0.97800
O857        O  0.58539842  0.05342383  0.99018174    -0.55000
O858        O  0.59545923  0.98417255  0.99552642    -0.74400
C859        C  0.60249004  0.96389970  0.01547536     0.98000
O860        O  0.53347415  0.93714804  0.10005279    -0.63200
O861        O  0.47525309  0.07892736  0.09692834    -0.58000
O862        O  0.54974331  0.98730993  0.10056706    -0.94700
O863        O  0.53646211  0.03786992  0.10373532    -0.93100
O864        O  0.42010202  0.02003550  0.10816972    -0.93500
O865        O  0.43140651  0.95972323  0.10297221    -0.92300
C866        C  0.54947360  0.01314281  0.11471445     1.16800
H867        H  0.43636903  0.05916828  0.04887918     0.32700
H868        H  0.46303553  0.93763517  0.04808021     0.43600
H869        H  0.56824543  0.01913580  0.04498023     0.37100
H870        H  0.49132711  0.00319658  0.94438738     0.33600
H871        H  0.37892278  0.96168031  0.03341028     0.25400
H872        H  0.51740087  0.91572070  0.95234749     0.31300
H873        H  0.54757427  0.96977915  0.93331363     0.37200
H874        H  0.44202509  0.02425115  0.11736794     0.31700
H875        H  0.49181009  0.09134506  0.10791287     0.30600
H876        H  0.55092846  0.09604474  0.08278797     0.32300
H877        H  0.60383051  0.04421012  0.00208485     0.31200
H878        H  0.45478624  0.95817813  0.10987497     0.35200
H879        H  0.51300490  0.92507528  0.10210915     0.27900
H880        H  0.41063353  0.07349174  0.94525511     0.32200
H881        H  0.57016806  0.04520019  0.93102197     0.35000
H882        H  0.46105963  0.09407545  0.08623709     0.27600
H883        H  0.55144875  0.92200846  0.09551197     0.40500
H884        H  0.42600355  0.90523554  0.97360937     0.30600
H885        H  0.39913453  0.93782650  0.05259929     0.38200
H886        H  0.57430470  0.06787697  0.00467419     0.30000
H887        H  0.48220299  0.90585151  0.94102708     0.30100
H888        H  0.44691174  0.07256155  0.93126341     0.30400
Zr889      Zr  0.53506627  0.04552797  0.48566631     2.17500
O890        O  0.58297655  0.06845866  0.46068637    -0.52000
O891        O  0.52086258  0.09788385  0.47116929    -0.75200
O892        O  0.54232924  0.02818766  0.43320755    -0.82000
O893        O  0.57194254  0.07235623  0.55721222    -0.83700
O894        O  0.49968169  0.99787094  0.41956252    -0.79300
O895        O  0.58564089  0.04694256  0.51429958    -0.91000
O896        O  0.46719883  0.10730795  0.48471753    -0.76900
O897        O  0.47753194  0.04445225  0.47385353    -0.86400
O898        O  0.50787882  0.07009292  0.52832916    -0.86100
O899        O  0.52359276  0.99202577  0.47942419    -0.72900
O900        O  0.55062740  0.01689230  0.53028225    -0.85000
Zr901      Zr  0.45213474  0.98588898  0.55484540     2.26400
Zr902      Zr  0.46541272  0.99144566  0.46744611     2.06300
Zr903      Zr  0.52297413  0.04123074  0.57295086     2.10000
Zr904      Zr  0.45017099  0.06709885  0.51741596     1.78800
O905        O  0.56713454  0.02444695  0.60715247    -0.93800
O906        O  0.40360937  0.07436980  0.48255205    -0.41600
O907        O  0.46461514  0.03875028  0.56193215    -0.78300
O908        O  0.43665788  0.01489582  0.51063036    -0.97000
O909        O  0.47978803  0.96233895  0.51207706    -0.90300
O910        O  0.50962888  0.98804971  0.56749286    -0.93100
C911        C  0.49418262  0.11440274  0.47132905     1.00700
C912        C  0.59134942  0.06790924  0.53376942     1.13600
C913        C  0.52718388  0.01177593  0.41344370     1.04400
O914        O  0.42723245  0.01527815  0.43140077    -0.95300
O915        O  0.41227754  0.96541118  0.47801581    -0.91000
O916        O  0.40638401  0.96103540  0.52965267    -0.84100
C917        C  0.39614015  0.95696549  0.50216511     1.11000
O918        O  0.59474602  0.96167762  0.50779500    -0.97200
Zr919      Zr  0.53701403  0.96422618  0.52498032     1.88900
O920        O  0.46237749  0.93241315  0.56633045    -0.73900
O921        O  0.46534883  0.94253887  0.44044462    -0.53100
O922        O  0.55237550  0.92287314  0.48975795    -0.97800
O923        O  0.57102026  0.95164766  0.56949693    -0.55000
O924        O  0.51073756  0.91843335  0.54322501    -0.74400
C925        C  0.48429507  0.91223733  0.55832362     0.98000
O926        O  0.39931831  0.99269935  0.58212837    -0.63200
O927        O  0.51492465  0.08938264  0.60062179    -0.58000
O928        O  0.45276472  0.99413423  0.61001162    -0.94700
O929        O  0.49246257  0.02907861  0.62126434    -0.93100
O930        O  0.44873645  0.11148059  0.55154492    -0.93500
O931        O  0.39702147  0.07629469  0.54319017    -0.92300
C932        C  0.46834317  0.01132668  0.62894016     1.16800
H933        H  0.51463671  0.09104866  0.53066181     0.32700
H934        H  0.41293179  0.01472437  0.50770632     0.43600
H935        H  0.51393384  0.97720925  0.58624113     0.37100
H936        H  0.53689285  0.98227488  0.46357981     0.33600
H937        H  0.39918304  0.09667559  0.48263238     0.25400
H938        H  0.45968492  0.94761951  0.41901643     0.31300
H939        H  0.53152307  0.91812474  0.47889031     0.37200
H940        H  0.46512015  0.12573942  0.54299476     0.31700
H941        H  0.49128116  0.08960024  0.60706785     0.30600
H942        H  0.56721497  0.04000557  0.62375769     0.32300
H943        H  0.58872880  0.93763587  0.56164910     0.31200
H944        H  0.38610639  0.05621503  0.54316637     0.35200
H945        H  0.38386988  0.00225520  0.56728999     0.27900
H946        H  0.57456879  0.07796715  0.44168370     0.32200
H947        H  0.59932669  0.98234091  0.50000006     0.35000
H948        H  0.52752638  0.08681126  0.61987787     0.27600
H949        H  0.39071688  0.97192446  0.58539124     0.40500
H950        H  0.42837232  0.00197906  0.41294182     0.30600
H951        H  0.41298559  0.06991607  0.46194364     0.38200
H952        H  0.55700316  0.93852225  0.58240910     0.30000
H953        H  0.48902567  0.93602285  0.43956818     0.30100
H954        H  0.59732094  0.05116671  0.45358243     0.30400
C955        C  0.49349451  0.22992985  0.40644485     0.85800
C956        C  0.52194767  0.22770396  0.38320116    -0.54400
C957        C  0.52531197  0.25277054  0.36545504     0.08800
C958        C  0.50011987  0.27852699  0.37275934     0.19700
C959        C  0.49989874  0.25922078  0.42499328    -0.55100
C960        C  0.50262960  0.28478017  0.40735593     0.08900
C961        C  0.46265195  0.23816837  0.38680634    -0.54700
C962        C  0.46654151  0.26356321  0.36953824     0.09400
H963        H  0.53827931  0.20777671  0.38107098     0.13900
H964        H  0.50255172  0.29897154  0.35810197    -0.00300
H965        H  0.50060317  0.25979089  0.44985120     0.14200
H966        H  0.43970374  0.22579521  0.38550470     0.14000
Zr967      Zr  0.96409402  0.46348811  0.03332182     2.17500
O968        O  0.95885544  0.42849350  0.07629935    -0.52000
O969        O  0.90741099  0.44655971  0.02673995    -0.75200
O970        O  0.94728991  0.48821654  0.08106445    -0.82000
O971        O  0.00742519  0.39942005  0.98698921    -0.83700
O972        O  0.94689926  0.53971571  0.07593115    -0.79300
O973        O  0.98800255  0.41303746  0.03437807    -0.91000
O974        O  0.88772231  0.46531246  0.98225993    -0.76900
O975        O  0.93618099  0.50747857  0.01435313    -0.86400
O976        O  0.95743484  0.45319515  0.97985420    -0.86100
O977        O  0.00017559  0.50479511  0.04585585    -0.72900
O978        O  0.01856034  0.45488811  0.01219875    -0.85000
Zr979      Zr  0.02181383  0.53162886  0.95128882     2.26400
Zr980      Zr  0.97248794  0.54914899  0.02501351     2.06300
Zr981      Zr  0.01218316  0.44656003  0.95811284     2.10000
Zr982      Zr  0.93038462  0.49777143  0.96092525     1.78800
O983        O  0.05857272  0.41090507  0.94999744    -0.93800
O984        O  0.88266601  0.53129405  0.97175393    -0.41600
O985        O  0.98493591  0.49104709  0.93871059    -0.78300
O986        O  0.96611198  0.53996026  0.97089885    -0.97000
O987        O  0.02768903  0.54090473  0.00480599    -0.90300
O988        O  0.04905238  0.48722042  0.97012113    -0.93100
C989        C  0.88469437  0.44914610  0.00647541     1.00700
C990        C  0.99971008  0.39367654  0.01492509     1.13600
C991        C  0.94161554  0.51526882  0.09146569     1.04400
O992        O  0.92025105  0.57809486  0.02661353    -0.95300
O993        O  0.98214763  0.59766987  0.99784070    -0.91000
O994        O  0.01114735  0.58550004  0.95461108    -0.84100
C995        C  0.99681085  0.60487225  0.97251163     1.11000
O996        O  0.06764635  0.46701206  0.06954497    -0.97200
Zr997      Zr  0.05418193  0.49600434  0.02380298     1.88900
O998        O  0.07723480  0.55125167  0.96164801    -0.73900
O999        O  0.00005335  0.58285175  0.06116059    -0.53100
O1000       O  0.07180861  0.52872877  0.06586408    -0.97800
O1001       O  0.09966159  0.45895463  0.01717031    -0.55000
O1002       O  0.09777805  0.52661609  0.00318644    -0.74400
C1003       C  0.10011741  0.54578542  0.98141923     0.98000
O1004       O  0.01583590  0.55420735  0.90070028    -0.63200
O1005       O  0.97723170  0.41892755  0.92223714    -0.58000
O1006       O  0.04712747  0.50833953  0.90577981    -0.94700
O1007       O  0.04072541  0.45696802  0.90892658    -0.93100
O1008       O  0.91418269  0.46639047  0.91727129    -0.93500
O1009       O  0.91433800  0.52587944  0.91522903    -0.92300
C1010       C  0.05058227  0.48109870  0.89498388     1.16800
H1011       H  0.94465272  0.43505400  0.97632515     0.32700
H1012       H  0.95594293  0.55763888  0.96149338     0.43600
H1013       H  0.07057088  0.48400213  0.96053175     0.37100
H1014       H  0.00321400  0.50699932  0.06769321     0.33600
H1015       H  0.86379259  0.52140313  0.96136209     0.25400
H1016       H  0.98194617  0.59603806  0.06967414     0.31300
H1017       H  0.06660646  0.54973632  0.05897631     0.37200
H1018       H  0.90514124  0.44756213  0.92621129     0.31700
H1019       H  0.99180531  0.41437448  0.90436545     0.30600
H1020       H  0.05027187  0.39586072  0.93490907     0.32300
H1021       H  0.11270830  0.46624672  0.99947984     0.31200
H1022       H  0.92102331  0.54720627  0.91908885     0.35200
H1023       H  0.99517010  0.56680885  0.90149483     0.27900
H1024       H  0.93609768  0.43159761  0.08463774     0.32200
H1025       H  0.04849644  0.45340247  0.07241667     0.35000
H1026       H  0.97378246  0.39884081  0.93184892     0.27600
H1027       H  0.03411819  0.56893291  0.89895049     0.40500
H1028       H  0.90360173  0.56353729  0.03417193     0.30600
H1029       H  0.87795263  0.52870975  0.99385567     0.38200
H1030       H  0.08887432  0.44023730  0.00950601     0.30000
H1031       H  0.00668360  0.56951762  0.07835125     0.30100
H1032       H  0.97384523  0.43617725  0.09246924     0.30400
Zr1033     Zr  0.46155613  0.52645452  0.02574659     2.17500
O1034       O  0.40746328  0.52896233  0.05147457    -0.52000
O1035       O  0.47132657  0.57986858  0.03531823    -0.75200
O1036       O  0.46469368  0.52519650  0.08108980    -0.82000
O1037       O  0.41813465  0.53601887  0.94765426    -0.83700
O1038       O  0.50676507  0.49324745  0.09521846    -0.79300
O1039       O  0.41272688  0.54279906  0.99914132    -0.91000
O1040       O  0.52218775  0.59060233  0.01646325    -0.76900
O1041       O  0.51920652  0.52774427  0.03665787    -0.86400
O1042       O  0.48647532  0.54566150  0.98034635    -0.86100
O1043       O  0.47584250  0.47491634  0.03826380    -0.72900
O1044       O  0.44671293  0.49193150  0.98540152    -0.85000
Zr1045     Zr  0.54660782  0.45926680  0.96239244     2.26400
Zr1046     Zr  0.53434358  0.47605415  0.04785722     2.06300
Zr1047     Zr  0.47296947  0.51058498  0.94002766     2.10000
Zr1048     Zr  0.54448531  0.54548465  0.99095264     1.78800
O1049       O  0.43535946  0.48367525  0.90605647    -0.93800
O1050       O  0.58871962  0.55988610  0.02585801    -0.41600
O1051       O  0.53145080  0.51091916  0.95027057    -0.78300
O1052       O  0.56153024  0.49425193  0.00254452    -0.97000
O1053       O  0.52099925  0.44091353  0.00758941    -0.90300
O1054       O  0.48862884  0.45887879  0.95133201    -0.93100
C1055       C  0.49517726  0.59819060  0.03051022     1.00700
C1056       C  0.40159932  0.54444971  0.97180800     1.13600
C1057       C  0.48199681  0.51128126  0.10136131     1.04400
O1058       O  0.57717623  0.49895481  0.07939412    -0.95300
O1059       O  0.58440378  0.44455100  0.04243381    -0.91000
O1060       O  0.58900709  0.43275737  0.99158339    -0.84100
C1061       C  0.59852680  0.43096490  0.01953427     1.11000
O1062       O  0.41093032  0.43746424  0.02502222    -0.97200
Zr1063     Zr  0.46326130  0.44074414  0.99703998     1.88900
O1064       O  0.53448267  0.40677744  0.94902411    -0.73900
O1065       O  0.52723332  0.43126752  0.07978796    -0.53100
O1066       O  0.46741521  0.40102727  0.03559127    -0.97800
O1067       O  0.41781736  0.42328555  0.96497692    -0.55000
O1068       O  0.48400390  0.39629911  0.96971894    -0.74400
C1069       C  0.51010141  0.38909205  0.95423937     0.98000
O1070       O  0.60269993  0.45699340  0.94074750    -0.63200
O1071       O  0.47423474  0.55520860  0.90709853    -0.58000
O1072       O  0.54781233  0.46568564  0.90717574    -0.94700
O1073       O  0.50706380  0.49958527  0.89411750    -0.93100
O1074       O  0.54645258  0.58546388  0.95259497    -0.93500
O1075       O  0.59751147  0.54929677  0.96426094    -0.92300
C1076       C  0.53245302  0.48227158  0.88753211     1.16800
H1077       H  0.47803821  0.56584723  0.97568781     0.32700
H1078       H  0.58534234  0.49381465  0.00532981     0.43600
H1079       H  0.48403025  0.44585308  0.93392156     0.37100
H1080       H  0.46385038  0.46862704  0.05629224     0.33600
H1081       H  0.59194703  0.58190692  0.02214946     0.25400
H1082       H  0.54231901  0.43443869  0.09734503     0.31300
H1083       H  0.49119885  0.39480789  0.03579022     0.37200
H1084       H  0.52324394  0.59304830  0.95064778     0.31700
H1085       H  0.45970726  0.55000617  0.88962678     0.30600
H1086       H  0.42507110  0.49986433  0.89337348     0.32300
H1087       H  0.41538480  0.40146176  0.97012834     0.31200
H1088       H  0.60117778  0.52893436  0.95467500     0.35200
H1089       H  0.60263900  0.44012238  0.92547503     0.27900
H1090       H  0.40834624  0.54622462  0.06626071     0.32200
H1091       H  0.40050922  0.45800140  0.02312498     0.35000
H1092       H  0.46184351  0.57146217  0.91845842     0.27600
H1093       H  0.60514533  0.47581525  0.92861488     0.40500
H1094       H  0.57684499  0.48723270  0.09867580     0.30600
H1095       H  0.57849916  0.55914064  0.04651696     0.38200
H1096       H  0.42694168  0.42300089  0.94386062     0.30000
H1097       H  0.50458737  0.43344394  0.08863693     0.30100
H1098       H  0.40627864  0.51037188  0.06414798     0.30400
Zr1099     Zr  0.96821557  0.54061384  0.46451895     2.17500
O1100       O  0.92911990  0.58294034  0.45537121    -0.52000
O1101       O  0.95292815  0.52905794  0.41166575    -0.75200
O1102       O  0.99308753  0.58757527  0.44834319    -0.82000
O1103       O  0.89896104  0.50109521  0.51053777    -0.83700
O1104       O  0.04905432  0.58546966  0.45306218    -0.79300
O1105       O  0.91242335  0.54371865  0.48427767    -0.91000
O1106       O  0.97962251  0.48658212  0.39444718    -0.76900
O1107       O  0.01758234  0.52094591  0.44108017    -0.86400
O1108       O  0.95892440  0.48720812  0.46074959    -0.86100
O1109       O  0.01150372  0.55522627  0.49938587    -0.72900
O1110       O  0.95931772  0.52372555  0.51591424    -0.85000
Zr1111     Zr  0.04556594  0.46441465  0.52438129     2.26400
Zr1112     Zr  0.06130326  0.53487242  0.47566613     2.06300
Zr1113     Zr  0.95096098  0.46999411  0.51235761     2.10000
Zr1114     Zr  0.00911633  0.46710768  0.43885466     1.78800
O1115       O  0.91985094  0.46382882  0.55983069    -0.93800
O1116       O  0.05055087  0.46517022  0.39786964    -0.41600
O1117       O  0.00157702  0.44979890  0.49030881    -0.78300
O1118       O  0.05387504  0.48046822  0.47221882    -0.97000
O1119       O  0.05351605  0.51790320  0.52768736    -0.90300
O1120       O  0.99515443  0.48286263  0.54694750    -0.93100
C1121       C  0.95972762  0.50938054  0.39049760     1.00700
C1122       C  0.89202119  0.52774147  0.49962459     1.13600
C1123       C  0.02174474  0.59947864  0.44582942     1.04400
O1124       O  0.09243295  0.53616029  0.42771724    -0.95300
O1125       O  0.11529823  0.50828003  0.48189750    -0.91000
O1126       O  0.10440198  0.46936253  0.51431810    -0.84100
C1127       C  0.12414456  0.48486212  0.49772797     1.11000
O1128       O  0.97362159  0.58507460  0.55759147    -0.97200
Zr1129     Zr  0.00299933  0.53636486  0.55047330     1.88900
O1130       O  0.05887628  0.47277528  0.57892921    -0.73900
O1131       O  0.09586376  0.57261880  0.50087547    -0.53100
O1132       O  0.04031243  0.57476555  0.57057746    -0.97800
O1133       O  0.95796226  0.53260993  0.58783761    -0.55000
O1134       O  0.03094496  0.51517052  0.59528822    -0.74400
C1135       C  0.05054203  0.49222866  0.60007531     0.98000
O1136       O  0.07822692  0.41694529  0.52724776    -0.63200
O1137       O  0.91331579  0.43743749  0.48369105    -0.58000
O1138       O  0.02082435  0.41677178  0.53816178    -0.94700
O1139       O  0.96494021  0.41859481  0.53148663    -0.93100
O1140       O  0.97002277  0.42735722  0.42551778    -0.93500
O1141       O  0.03761343  0.41805947  0.43142977    -0.92300
C1142       C  0.99211354  0.40457734  0.53907335     1.16800
H1143       H  0.93977085  0.48276173  0.44829166     0.32700
H1144       H  0.07325798  0.47047768  0.46345762     0.43600
H1145       H  0.99146606  0.47384231  0.56675607     0.37100
H1146       H  0.01257049  0.57716553  0.50145870     0.33600
H1147       H  0.03776466  0.46267640  0.37870555     0.25400
H1148       H  0.08068889  0.59012867  0.50544775     0.31300
H1149       H  0.04606789  0.58732322  0.55265087     0.37200
H1150       H  0.96763565  0.41531286  0.44445604     0.31700
H1151       H  0.92198951  0.41636296  0.48643233     0.30600
H1152       H  0.90934951  0.44363782  0.55781051     0.32300
H1153       H  0.96196471  0.51300018  0.59839734     0.31200
H1154       H  0.04976312  0.41462813  0.45080575     0.35200
H1155       H  0.08999427  0.41448909  0.50735523     0.27900
H1156       H  0.93336495  0.59021547  0.43433295     0.32200
H1157       H  0.97678230  0.59069693  0.57940027     0.35000
H1158       H  0.89228781  0.43819686  0.49559401     0.27600
H1159       H  0.09583308  0.42045542  0.54261658     0.40500
H1160       H  0.11176522  0.54911896  0.43224874     0.30600
H1161       H  0.05922538  0.48614813  0.39692043     0.38200
H1162       H  0.93778032  0.52916818  0.57545359     0.30000
H1163       H  0.10091455  0.56383768  0.52117489     0.30100
H1164       H  0.93584010  0.59989287  0.46907009     0.30400
C1165       C  0.23107060  0.34542650  0.53197518     0.85800
C1166       C  0.20917600  0.37377658  0.52618906    -0.54400
C1167       C  0.21961543  0.39164880  0.50260802     0.08800
C1168       C  0.25014562  0.37800030  0.48520005     0.19700
C1169       C  0.23030063  0.32808114  0.50119739    -0.55100
C1170       C  0.24021462  0.34481103  0.47667849     0.08900
C1171       C  0.26647669  0.35735808  0.53450783    -0.54700
C1172       C  0.27665725  0.37421796  0.51040802     0.09400
H1173       H  0.18765625  0.37985276  0.54024406     0.13900
H1174       H  0.25855240  0.39187230  0.46556007    -0.00300
H1175       H  0.22211604  0.30482191  0.49822087     0.14200
H1176       H  0.28176971  0.35398433  0.55470530     0.14000
Zr1177     Zr  0.45091269  0.47431048  0.46714918     2.17500
O1178       O  0.39490867  0.47258935  0.44597090    -0.52000
O1179       O  0.46951286  0.42511246  0.44747441    -0.75200
O1180       O  0.44913402  0.48643673  0.41266216    -0.82000
O1181       O  0.41132729  0.45165494  0.54278395    -0.83700
O1182       O  0.48504825  0.52490390  0.40373872    -0.79300
O1183       O  0.41044295  0.44254161  0.49122806    -0.91000
O1184       O  0.52135939  0.41580927  0.46610789    -0.76900
O1185       O  0.50832877  0.47974267  0.45565782    -0.86400
O1186       O  0.47946944  0.45173165  0.50928466    -0.86100
O1187       O  0.45778353  0.52822947  0.46311085    -0.72900
O1188       O  0.43257504  0.50102685  0.51270088    -0.85000
Zr1189     Zr  0.52732382  0.53905722  0.53913077     2.26400
Zr1190     Zr  0.51596512  0.53369686  0.45209994     2.06300
Zr1191     Zr  0.46246380  0.47902504  0.55478330     2.10000
Zr1192     Zr  0.53667335  0.45796647  0.49829304     1.78800
O1193       O  0.42419260  0.49813708  0.59418258    -0.93800
O1194       O  0.58336806  0.44932525  0.46331104    -0.41600
O1195       O  0.52007297  0.48521915  0.54356612    -0.78300
O1196       O  0.54611326  0.51114302  0.49407894    -0.97000
O1197       O  0.49839899  0.56158610  0.49731893    -0.90300
O1198       O  0.47017060  0.53312247  0.55140397    -0.93100
C1199       C  0.49583249  0.40858515  0.45053160     1.00700
C1200       C  0.39883244  0.43978656  0.51838323     1.13600
C1201       C  0.46225784  0.50627151  0.39499600     1.04400
O1202       O  0.55630343  0.51727475  0.41327374    -0.95300
O1203       O  0.56814937  0.56044357  0.46244230    -0.91000
O1204       O  0.57450903  0.56150889  0.51418511    -0.84100
C1205       C  0.58446343  0.56710083  0.48695469     1.11000
O1206       O  0.38196579  0.55317563  0.49699875    -0.97200
Zr1207     Zr  0.44110208  0.55471919  0.50898174     1.88900
O1208       O  0.50824255  0.58993792  0.55482283    -0.73900
O1209       O  0.50835684  0.58409252  0.42989610    -0.53100
O1210       O  0.42583726  0.59025832  0.46850581    -0.97800
O1211       O  0.40455451  0.56900395  0.55180981    -0.55000
O1212       O  0.46173028  0.60217543  0.52870478    -0.74400
C1213       C  0.48559840  0.60907895  0.54651226     0.98000
O1214       O  0.56918415  0.55576462  0.57571885    -0.63200
O1215       O  0.46670045  0.42882020  0.57825047    -0.58000
O1216       O  0.53784446  0.51572838  0.58864037    -0.94700
O1217       O  0.49774804  0.48207428  0.60099895    -0.93100
O1218       O  0.53983911  0.41380773  0.53168525    -0.93500
O1219       O  0.59053943  0.45587139  0.52351148    -0.92300
C1220       C  0.52472426  0.49649974  0.60694527     1.16800
H1221       H  0.47434832  0.43037964  0.51098322     0.32700
H1222       H  0.56986385  0.51169581  0.49101329     0.43600
H1223       H  0.46471820  0.54328573  0.57056599     0.37100
H1224       H  0.44425951  0.53619975  0.44672418     0.33600
H1225       H  0.58860393  0.42720815  0.46474216     0.25400
H1226       H  0.51511825  0.58150147  0.40816719     0.31300
H1227       H  0.43876520  0.60885462  0.47265117     0.37200
H1228       H  0.53471667  0.42206740  0.55240827     0.31700
H1229       H  0.44993586  0.42940121  0.59494683     0.30600
H1230       H  0.42887778  0.48529993  0.61225659     0.32300
H1231       H  0.41889896  0.57853042  0.56744909     0.31200
H1232       H  0.58935202  0.47240295  0.53913503     0.35200
H1233       H  0.59080310  0.54744038  0.56816978     0.27900
H1234       H  0.39637544  0.45886909  0.42782466     0.32200
H1235       H  0.37339889  0.57438007  0.49967055     0.35000
H1236       H  0.45777321  0.41429678  0.56297822     0.27600
H1237       H  0.57062212  0.57813962  0.57328585     0.40500
H1238       H  0.55599318  0.53382557  0.39798138     0.30600
H1239       H  0.57381155  0.45184070  0.44260783     0.38200
H1240       H  0.39797442  0.54936130  0.56087313     0.30000
H1241       H  0.48394077  0.58725866  0.42919720     0.30100
H1242       H  0.39044115  0.49320395  0.43765535     0.30400
C1243       C  0.40915467  0.51482684  0.21639456     0.85800
C1244       C  0.38416707  0.54178269  0.22036340    -0.54400
C1245       C  0.36253403  0.53926305  0.24437541     0.08800
C1246       C  0.36752219  0.50916417  0.26245993     0.19700
C1247       C  0.42612043  0.51213202  0.24766819    -0.55100
C1248       C  0.40486711  0.50920919  0.27190717     0.08900
C1249       C  0.38685569  0.48683149  0.21404972    -0.54700
C1250       C  0.36480981  0.48346129  0.23758467     0.09400
H1251       H  0.38283239  0.56159046  0.20579485     0.13900
H1252       H  0.35012771  0.50686095  0.28210256    -0.00300
H1253       H  0.45291713  0.51293104  0.25045981     0.14200
H1254       H  0.38970341  0.47006694  0.19577083     0.14000
C1255       C  0.98657367  0.78465876  0.93150058     0.85800
C1256       C  0.95578089  0.78040719  0.91050773    -0.54400
C1257       C  0.95861006  0.75613429  0.89026251     0.08800
C1258       C  0.99233781  0.73882873  0.89271160     0.19700
C1259       C  0.99143698  0.75367952  0.94663955    -0.55100
C1260       C  0.99332550  0.72950864  0.92692093     0.08900
C1261       C  0.01536755  0.78753848  0.90870219    -0.54700
C1262       C  0.01912277  0.76379389  0.88868172     0.09400
H1263       H  0.93377659  0.79497853  0.91106189     0.13900
H1264       H  0.99500481  0.71925635  0.87647813    -0.00300
H1265       H  0.99217208  0.75107436  0.97136034     0.14200
H1266       H  0.03209216  0.80676018  0.90876055     0.14000
Zr1267     Zr  0.19543431  0.71911293  0.77769957     2.17500
O1268       O  0.14020477  0.69693412  0.77672614    -0.52000
O1269       O  0.21128018  0.70148187  0.82877811    -0.75200
O1270       O  0.19833317  0.66513452  0.76705674    -0.82000
O1271       O  0.15031141  0.79237823  0.80024002    -0.83700
O1272       O  0.23907399  0.65405827  0.73228805    -0.79300
O1273       O  0.15024764  0.74099950  0.80657857    -0.91000
O1274       O  0.25916287  0.72524291  0.84057079    -0.76900
O1275       O  0.25365916  0.70953037  0.77595126    -0.86400
O1276       O  0.21884307  0.76312583  0.80065962    -0.86100
O1277       O  0.20757856  0.71241959  0.72408607    -0.72900
O1278       O  0.17650743  0.76138470  0.74723522    -0.85000
Zr1279     Zr  0.27493819  0.78797370  0.71429681     2.26400
Zr1280     Zr  0.26646154  0.70255582  0.72260392     2.06300
Zr1281     Zr  0.20118357  0.80523360  0.77009231     2.10000
Zr1282     Zr  0.27711754  0.75439866  0.79772609     1.78800
O1283       O  0.16143072  0.84016665  0.74648837    -0.93800
O1284       O  0.32476424  0.72327223  0.81337974    -0.41600
O1285       O  0.26015379  0.79615406  0.76713365    -0.78300
O1286       O  0.29252680  0.74602220  0.74553959    -0.97000
O1287       O  0.24994675  0.74493816  0.69115285    -0.90300
O1288       O  0.21650102  0.79947435  0.71672676    -0.93100
C1289       C  0.23540385  0.70739454  0.84703262     1.00700
C1290       C  0.13773460  0.76766459  0.81116637     1.13600
C1291       C  0.21444841  0.64655904  0.74941251     1.04400
O1292       O  0.30672158  0.66642926  0.74358586    -0.95300
O1293       O  0.32006061  0.71036860  0.69756205    -0.91000
O1294       O  0.32475893  0.76186147  0.69391831    -0.84100
C1295       C  0.33611030  0.73441049  0.69042687     1.11000
O1296       O  0.13870391  0.73082623  0.68742451    -0.97200
Zr1297     Zr  0.19177139  0.75592676  0.69409140     1.88900
O1298       O  0.26248407  0.80204165  0.66191537    -0.73900
O1299       O  0.26340880  0.67639988  0.67319464    -0.53100
O1300       O  0.19228586  0.72024807  0.65093625    -0.97800
O1301       O  0.14495721  0.79055017  0.68428321    -0.55000
O1302       O  0.21055387  0.78597014  0.65078776    -0.74400
C1303       C  0.23757341  0.79955772  0.64397219     0.98000
O1304       O  0.32338875  0.82054245  0.70990235    -0.63200
O1305       O  0.19810124  0.83692302  0.81629433    -0.58000
O1306       O  0.27489087  0.84071201  0.73009530    -0.94700
O1307       O  0.23599039  0.85070057  0.76707836    -0.93100
O1308       O  0.27267611  0.79177119  0.83926734    -0.93500
O1309       O  0.32885870  0.78240475  0.80048012    -0.92300
C1310       C  0.26071165  0.85828915  0.74999990     1.16800
H1311       H  0.21150647  0.76580714  0.82163788     0.32700
H1312       H  0.31635592  0.74340583  0.74594318     0.43600
H1313       H  0.21120310  0.81786270  0.70556848     0.37100
H1314       H  0.19574894  0.69522953  0.71584871     0.33600
H1315       H  0.32856178  0.72909173  0.83505273     0.25400
H1316       H  0.26904613  0.69206864  0.65790299     0.31300
H1317       H  0.21241948  0.72523083  0.63896016     0.37200
H1318       H  0.27185848  0.81181005  0.82896137     0.31700
H1319       H  0.17542840  0.84610868  0.81627996     0.30600
H1320       H  0.13961488  0.83043066  0.74934490     0.32300
H1321       H  0.14647999  0.79536485  0.66220910     0.31200
H1322       H  0.33510446  0.78617478  0.77888822     0.35200
H1323       H  0.34136250  0.81033965  0.72163390     0.27900
H1324       H  0.14135001  0.67877630  0.79004383     0.32200
H1325       H  0.13600336  0.71845327  0.70610257     0.35000
H1326       H  0.19800995  0.82237214  0.83351106     0.27600
H1327       H  0.33059982  0.81927833  0.68819110     0.40500
H1328       H  0.32118555  0.67905203  0.75670358     0.30600
H1329       H  0.31634609  0.70219243  0.81431015     0.38200
H1330       H  0.15056442  0.80985175  0.69482275     0.30000
H1331       H  0.28274721  0.66209442  0.67294354     0.30100
H1332       H  0.13758652  0.68873766  0.75567749     0.30400
C1333       C  0.48326646  0.78715926  0.60287615     0.85800
C1334       C  0.51677021  0.78695241  0.61926853    -0.54400
C1335       C  0.52448197  0.76058391  0.63381638     0.08800
C1336       C  0.49720375  0.73628115  0.63160503     0.19700
C1337       C  0.48437310  0.75848893  0.58189231    -0.55100
C1338       C  0.49198746  0.73188011  0.59698499     0.08900
C1339       C  0.45783116  0.77879839  0.62771393    -0.54700
C1340       C  0.46470551  0.75219573  0.64245168     0.09400
H1341       H  0.53391998  0.80583734  0.61827040     0.13900
H1342       H  0.50284353  0.71495042  0.64421395    -0.00300
H1343       H  0.47912984  0.75913119  0.55752735     0.14200
H1344       H  0.43388715  0.79003058  0.63099503     0.14000
C1345       C  0.39523046  0.74523015  0.69873784    -0.27000
C1346       C  0.37123040  0.73112888  0.68036364    -0.15000
C1347       C  0.38138104  0.71690266  0.65246566     0.35600
C1348       C  0.41428003  0.72050652  0.64215477    -0.26400
C1349       C  0.43720412  0.73751458  0.65918910    -0.15700
C1350       C  0.42818304  0.74831220  0.68854908     0.36700
N1351       N  0.45220710  0.76344375  0.70736292    -0.89900
H1352       H  0.38778005  0.75518694  0.72060780     0.17800
H1353       H  0.42110748  0.71228781  0.61943754     0.17800
N1354       N  0.35879148  0.70078003  0.63296590    -0.88900
H1355       H  0.44180970  0.76941380  0.72864072     0.35100
H1356       H  0.45845966  0.78385034  0.69673299     0.40200
H1357       H  0.33490471  0.70030428  0.64231746     0.39900
H1358       H  0.36723886  0.67810227  0.63145062     0.34800
C1359       C  0.05129890  0.78679051  0.84532809    -0.27000
C1360       C  0.04791979  0.76317910  0.86683127    -0.15000
C1361       C  0.07484646  0.74279379  0.87109135     0.35600
C1362       C  0.10337943  0.74501885  0.85256868    -0.26400
C1363       C  0.10697166  0.76835939  0.83080136    -0.15700
C1364       C  0.08058463  0.78975138  0.82743957     0.36700
N1365       N  0.08345460  0.81427421  0.80602297    -0.89900
H1366       H  0.03116949  0.80334331  0.84295088     0.17800
H1367       H  0.12349480  0.72868451  0.85580127     0.17800
N1368       N  0.07391649  0.72083811  0.89528191    -0.88900
H1369       H  0.06214243  0.82827837  0.80674741     0.35100
H1370       H  0.08462366  0.80464989  0.78402384     0.40200
H1371       H  0.07303266  0.73286083  0.91609766     0.39900
H1372       H  0.09577291  0.70756254  0.89553150     0.34800
C1373       C  0.51410944  0.64936456  0.57688975    -0.27000
C1374       C  0.48731263  0.64107635  0.55819629    -0.15000
C1375       C  0.46284828  0.66359976  0.55117120     0.35600
C1376       C  0.46546445  0.69326527  0.56321918    -0.26400
C1377       C  0.49189540  0.70115473  0.58234600    -0.15700
C1378       C  0.51653609  0.67896298  0.58897396     0.36700
N1379       N  0.54447083  0.68639112  0.60761299    -0.89900
H1380       H  0.53344901  0.63281130  0.58238528     0.17800
H1381       H  0.44609274  0.70998271  0.55829036     0.17800
N1382       N  0.43500522  0.65658987  0.53216934    -0.88900
H1383       H  0.56610318  0.68208516  0.59478109     0.35100
H1384       H  0.54477572  0.67178025  0.62641635     0.40200
H1385       H  0.43518307  0.67125367  0.51341011     0.39900
H1386       H  0.41324153  0.66100093  0.54477372     0.34800
C1387       C  0.44056113  0.48035380  0.34766765    -0.27000
C1388       C  0.44903586  0.50765174  0.36284537    -0.15000
C1389       C  0.44206853  0.53555664  0.34795178     0.35600
C1390       C  0.42661221  0.53563537  0.31887938    -0.26400
C1391       C  0.41788698  0.50830184  0.30402555    -0.15700
C1392       C  0.42581963  0.48046009  0.31837716     0.36700
N1393       N  0.41983062  0.45213127  0.30294459    -0.89900
H1394       H  0.44581629  0.45864032  0.35847269     0.17800
H1395       H  0.42161588  0.55721744  0.30771681     0.17800
N1396       N  0.44975180  0.56394094  0.36258000    -0.88900
H1397       H  0.40495242  0.43896336  0.31720542     0.35100
H1398       H  0.44263967  0.44059680  0.30018758     0.40200
H1399       H  0.42769457  0.57676511  0.36486903     0.39900
H1400       H  0.46571963  0.57579437  0.34813499     0.34800
C1401       C  0.30759402  0.42248559  0.51538203    -0.27000
C1402       C  0.30846814  0.39062526  0.51185222    -0.15000
C1403       C  0.33936990  0.37475167  0.51332704     0.35600
C1404       C  0.36870281  0.39107840  0.51711434    -0.26400
C1405       C  0.36775197  0.42290558  0.52054125    -0.15700
C1406       C  0.33689491  0.43869168  0.51994983     0.36700
N1407       N  0.33483083  0.47123566  0.52340208    -0.89900
H1408       H  0.28396174  0.43475851  0.51509983     0.17800
H1409       H  0.39242326  0.37893316  0.51679181     0.17800
N1410       N  0.34177244  0.34220333  0.51015627    -0.88900
H1411       H  0.34887857  0.48109188  0.50599350     0.35100
H1412       H  0.34535605  0.47712800  0.54445922     0.40200
H1413       H  0.33074300  0.33589060  0.48948222     0.39900
H1414       H  0.32873451  0.33221034  0.52809521     0.34800
C1415       C  0.16852283  0.45681276  0.46880023    -0.27000
C1416       C  0.15837519  0.47207342  0.49589344    -0.15000
C1417       C  0.17490764  0.46530314  0.52344412     0.35600
C1418       C  0.19787704  0.44083075  0.52423651    -0.26400
C1419       C  0.20428371  0.42256211  0.49812077    -0.15700
C1420       C  0.19135268  0.43196617  0.46976895     0.36700
N1421       N  0.19903169  0.41483772  0.44247569    -0.89900
H1422       H  0.15587864  0.46175144  0.44750098     0.17800
H1423       H  0.20875462  0.43437765  0.54595628     0.17800
N1424       N  0.16570972  0.48143068  0.55114167    -0.88900
H1425       H  0.17679615  0.40687251  0.43332352     0.35100
H1426       H  0.20950932  0.42970171  0.42666346     0.40200
H1427       H  0.17197204  0.50429302  0.54829328     0.39900
H1428       H  0.17964214  0.47335648  0.56962768     0.34800
C1429       C  0.47157061  0.48987747  0.15323705    -0.27000
C1430       C  0.47067289  0.51500665  0.13360880    -0.15000
C1431       C  0.45496468  0.54225354  0.14385361     0.35600
C1432       C  0.43711345  0.54280507  0.17155859    -0.26400
C1433       C  0.43408127  0.51636556  0.18951615    -0.15700
C1434       C  0.45396273  0.49048322  0.18117379     0.36700
N1435       N  0.45541113  0.46424434  0.20049797    -0.89900
H1436       H  0.48441450  0.46900820  0.14615788     0.17800
H1437       H  0.42560923  0.56422328  0.17830934     0.17800
N1438       N  0.45680824  0.56946221  0.12598873    -0.88900
H1439       H  0.48027212  0.46022098  0.20632517     0.35100
H1440       H  0.44729669  0.44540404  0.18787300     0.40200
H1441       H  0.46763911  0.58643382  0.13946053     0.39900
H1442       H  0.43256761  0.57663768  0.12082022     0.34800
C1443       C  0.97370108  0.65861630  0.97404146    -0.27000
C1444       C  0.99663581  0.63721697  0.96177588    -0.15000
C1445       C  0.01754992  0.64648840  0.93728828     0.35600
C1446       C  0.01481396  0.67604687  0.92563762    -0.26400
C1447       C  0.99276283  0.69753589  0.93833846    -0.15700
C1448       C  0.97133974  0.68855626  0.96247951     0.36700
N1449       N  0.94661674  0.70955168  0.97459218    -0.89900
H1450       H  0.95697681  0.65180684  0.99217184     0.17800
H1451       H  0.03061611  0.68223074  0.90671338     0.17800
N1452       N  0.04203975  0.62618252  0.92399908    -0.88900
H1453       H  0.93285265  0.69942690  0.99203156     0.35100
H1454       H  0.92995604  0.71451405  0.95695343     0.40200
H1455       H  0.06528088  0.63628338  0.92612243     0.39900
H1456       H  0.03696713  0.62406038  0.90060899     0.34800
C1457       C  0.52130989  0.33831071  0.40570295    -0.27000
C1458       C  0.50136860  0.31634931  0.41964421    -0.15000
C1459       C  0.47812843  0.32555357  0.44256432     0.35600
C1460       C  0.47554633  0.35646270  0.45083862    -0.26400
C1461       C  0.49611133  0.37797413  0.43734879    -0.15700
C1462       C  0.51926836  0.36890966  0.41464705     0.36700
N1463       N  0.54074315  0.39031717  0.40025546    -0.89900
H1464       H  0.53892775  0.33165676  0.38800646     0.17800
H1465       H  0.45819376  0.36371746  0.46867927     0.17800
N1466       N  0.45735393  0.30373064  0.45747630    -0.88900
H1467       H  0.55577783  0.40010392  0.41700503     0.35100
H1468       H  0.52601203  0.40757908  0.39060502     0.40200
H1469       H  0.44169446  0.29422601  0.44110760     0.39900
H1470       H  0.44194527  0.31445537  0.47383838     0.34800
C1471       C  0.50058988  0.85713912  0.55372600    -0.27000
C1472       C  0.47937529  0.87964727  0.56684182    -0.15000
C1473       C  0.45520282  0.87026509  0.58840109     0.35600
C1474       C  0.45473768  0.83987016  0.59788080    -0.26400
C1475       C  0.47790711  0.81781616  0.58670961    -0.15700
C1476       C  0.50022125  0.82673641  0.56346275     0.36700
N1477       N  0.52401177  0.80531876  0.55082296    -0.89900
H1478       H  0.51869331  0.86324660  0.53647059     0.17800
H1479       H  0.43711180  0.83476562  0.61564527     0.17800
N1480       N  0.43149482  0.89100511  0.60226301    -0.88900
H1481       H  0.54782989  0.81357804  0.55494113     0.35100
H1482       H  0.52053312  0.80427148  0.52711496     0.40200
H1483       H  0.41669740  0.90064082  0.58514351     0.39900
H1484       H  0.44413827  0.90806230  0.61410816     0.34800
C1485       C  0.52145859  0.16249058  0.45620367    -0.27000
C1486       C  0.49378964  0.14362182  0.45498562    -0.15000
C1487       C  0.46494337  0.15353330  0.43945007     0.35600
C1488       C  0.46443045  0.18204049  0.42534996    -0.26400
C1489       C  0.49235396  0.20097507  0.42566007    -0.15700
C1490       C  0.52083278  0.19114269  0.44215417     0.36700
N1491       N  0.54941723  0.21010792  0.44439168    -0.89900
H1492       H  0.54346908  0.15522900  0.46858377     0.17800
H1493       H  0.44190362  0.18854587  0.41388677     0.17800
N1494       N  0.43631362  0.13432572  0.43755091    -0.88900
H1495       H  0.56987367  0.19800514  0.43528498     0.35100
H1496       H  0.55397950  0.21428415  0.46760724     0.40200
H1497       H  0.44314022  0.11493123  0.42469131     0.39900
H1498       H  0.41692732  0.14510267  0.42572662     0.34800
C1499       C  0.29880930  0.08289435  0.00356203    -0.27000
C1500       C  0.29818994  0.10657232  0.02544185    -0.15000
C1501       C  0.31733318  0.10402128  0.05217523     0.35600
C1502       C  0.33990111  0.07959521  0.05467175    -0.26400
C1503       C  0.34370067  0.05821647  0.03063312    -0.15700
C1504       C  0.32137812  0.05860715  0.00583314     0.36700
N1505       N  0.32225962  0.03585368  0.98182955    -0.89900
H1506       H  0.28318579  0.08443213  0.98343286     0.17800
H1507       H  0.35684062  0.07911251  0.07391551     0.17800
N1508       N  0.31622430  0.12697620  0.07577252    -0.88900
H1509       H  0.29885045  0.02585212  0.98116959     0.35100
H1510       H  0.33899952  0.01815475  0.98689470     0.40200
H1511       H  0.29198031  0.12837717  0.08445116     0.39900
H1512       H  0.32196712  0.14799089  0.06609452     0.34800
C1513       C  0.04727864  0.01107072  0.31465604    -0.27000
C1514       C  0.08254202  0.01061357  0.31534803    -0.15000
C1515       C  0.09773256  0.01003263  0.34457429     0.35600
C1516       C  0.07838464  0.01007252  0.37146700    -0.26400
C1517       C  0.04342157  0.01034737  0.37086940    -0.15700
C1518       C  0.02782914  0.01077306  0.34183204     0.36700
N1519       N  0.99240800  0.00974633  0.33908566    -0.89900
H1520       H  0.03420604  0.01145049  0.29315911     0.17800
H1521       H  0.09116451  0.00980714  0.39326403     0.17800
N1522       N  0.13325046  0.00934148  0.34718836    -0.88900
H1523       H  0.98204117  0.02906743  0.34991125     0.35100
H1524       H  0.98409789  0.99030857  0.35032367     0.40200
H1525       H  0.14019377  0.98973812  0.35922639     0.39900
H1526       H  0.14034226  0.02838783  0.36004647     0.34800
C1527       C  0.30969157  0.41571905  0.21554622    -0.27000
C1528       C  0.31267035  0.39713294  0.24153680    -0.15000
C1529       C  0.32992349  0.40915228  0.26725668     0.35600
C1530       C  0.34440699  0.43816736  0.26596278    -0.26400
C1531       C  0.34345023  0.45564935  0.23934375    -0.15700
C1532       C  0.32473853  0.44450268  0.21410399     0.36700
N1533       N  0.31921858  0.46228862  0.18714083    -0.89900
H1534       H  0.29570849  0.40779801  0.19595198     0.17800
H1535       H  0.35760429  0.44657833  0.28571954     0.17800
N1536       N  0.33373690  0.39181028  0.29472307    -0.88900
H1537       H  0.34131506  0.46420239  0.17481574     0.35100
H1538       H  0.31067021  0.48405892  0.19369778     0.40200
H1539       H  0.32346357  0.40455811  0.31291991     0.39900
H1540       H  0.35916219  0.38875686  0.29885123     0.34800
C1541       C  0.21683873  0.30127092  0.40388603    -0.27000
C1542       C  0.24828148  0.29396055  0.39148124    -0.15000
C1543       C  0.27688849  0.30462409  0.40672144     0.35600
C1544       C  0.27343241  0.32266021  0.43351870    -0.26400
C1545       C  0.24203325  0.33039114  0.44561743    -0.15700
C1546       C  0.21329087  0.31967459  0.43040346     0.36700
N1547       N  0.18017287  0.32759965  0.44069106    -0.89900
H1548       H  0.19471922  0.29421906  0.39182548     0.17800
H1549       H  0.29541128  0.33024720  0.44538882     0.17800
N1550       N  0.30941972  0.29725360  0.39466899    -0.88900
H1551       H  0.16848082  0.33956746  0.42302040     0.35100
H1552       H  0.18044706  0.34263811  0.45937229     0.40200
H1553       H  0.31273409  0.27356575  0.39579755     0.39900
H1554       H  0.32784249  0.30685009  0.40836293     0.34800
C1555       C  0.38612151  0.29618095  0.34003816    -0.27000
C1556       C  0.38522807  0.28219340  0.31096488    -0.15000
C1557       C  0.41405005  0.26692252  0.29938337     0.35600
C1558       C  0.44156927  0.26295220  0.31849747    -0.26400
C1559       C  0.44086043  0.27428758  0.34845425    -0.15700
C1560       C  0.41386637  0.29235442  0.35894500     0.36700
N1561       N  0.41419476  0.30552733  0.38917573    -0.89900
H1562       H  0.36442550  0.30844254  0.34883931     0.17800
H1563       H  0.46298201  0.24964508  0.31059873     0.17800
N1564       N  0.41484227  0.25455221  0.26874932    -0.88900
H1565       H  0.39198290  0.31751844  0.39371264     0.35100
H1566       H  0.43307830  0.32162283  0.38956979     0.40200
H1567       H  0.43763039  0.24353111  0.26419720     0.39900
H1568       H  0.41312820  0.27292395  0.25369677     0.34800
C1569       C  0.19692297  0.11369319  0.28259563    -0.27000
C1570       C  0.18575613  0.13404765  0.25993620    -0.15000
C1571       C  0.16615254  0.12185881  0.23574296     0.35600
C1572       C  0.15771916  0.09055940  0.23536703    -0.26400
C1573       C  0.16761350  0.07066624  0.25872713    -0.15700
C1574       C  0.18839639  0.08244182  0.28222316     0.36700
N1575       N  0.20097145  0.06341944  0.30637605    -0.89900
H1576       H  0.21264369  0.12205118  0.30082156     0.17800
H1577       H  0.14139302  0.08207873  0.21768697     0.17800
N1578       N  0.15361054  0.14149044  0.21208256    -0.88900
H1579       H  0.22693414  0.06359078  0.30504301     0.35100
H1580       H  0.19435680  0.04068444  0.30309910     0.40200
H1581       H  0.13663468  0.15687601  0.22227594     0.39900
H1582       H  0.14039505  0.12905312  0.19576038     0.34800
C1583       C  0.27742998  0.21946721  0.06921709    -0.27000
C1584       C  0.25028589  0.20208044  0.05955665    -0.15000
C1585       C  0.21963647  0.20508524  0.07484420     0.35600
C1586       C  0.21706493  0.22443149  0.10050169    -0.26400
C1587       C  0.24477512  0.24025732  0.11173477    -0.15700
C1588       C  0.27515002  0.23829332  0.09550104     0.36700
N1589       N  0.30382512  0.25415063  0.10641431    -0.89900
H1590       H  0.30077812  0.21745675  0.05679260     0.17800
H1591       H  0.19360948  0.22599300  0.11282113     0.17800
N1592       N  0.19139056  0.18823262  0.06444916    -0.88900
H1593       H  0.32398045  0.25056961  0.09150445     0.35100
H1594       H  0.31069949  0.24451793  0.12732419     0.40200
H1595       H  0.18523770  0.19605259  0.04260390     0.39900
H1596       H  0.17070985  0.19278928  0.07848013     0.34800
C1597       C  0.95759745  0.82733176  0.96296245    -0.27000
C1598       C  0.98648918  0.81019406  0.95586137    -0.15000
C1599       C  0.01587563  0.81662716  0.97265661     0.35600
C1600       C  0.01710645  0.84246917  0.99200616    -0.26400
C1601       C  0.98924834  0.86167805  0.99570194    -0.15700
C1602       C  0.95870687  0.85260249  0.98287977     0.36700
N1603       N  0.92902585  0.87040923  0.98857822    -0.89900
H1604       H  0.93398393  0.82185328  0.95287952     0.17800
H1605       H  0.04067051  0.84892310  0.00187393     0.17800
N1606       N  0.04509236  0.79770394  0.96905596    -0.88900
H1607       H  0.91125037  0.85612208  0.99810505     0.35100
H1608       H  0.91995218  0.87815368  0.96757320     0.40200
H1609       H  0.05162369  0.78933688  0.99059454     0.39900
H1610       H  0.06445296  0.81130005  0.96127800     0.34800
C1611       C  0.16691473  0.12298321  0.99074601    -0.27000
C1612       C  0.19537360  0.11875732  0.00901429    -0.15000
C1613       C  0.19718895  0.09248793  0.02779687     0.35600
C1614       C  0.17059391  0.07201602  0.02855530    -0.26400
C1615       C  0.14290216  0.07620126  0.00972528    -0.15700
C1616       C  0.14119097  0.10167383  0.99035054     0.36700
N1617       N  0.11295734  0.10606443  0.97068414    -0.89900
H1618       H  0.16467133  0.14295630  0.97644853     0.17800
H1619       H  0.17201630  0.05228691  0.04332206     0.17800
N1620       N  0.22634677  0.08552202  0.04519048    -0.88900
H1621       H  0.11496168  0.12638037  0.95848700     0.35100
H1622       H  0.11338782  0.08839586  0.95441074     0.40200
H1623       H  0.23555278  0.06412079  0.03807830     0.39900
H1624       H  0.21946011  0.08403074  0.06825276     0.34800
C1625       C  0.06315979  0.02638134  0.15479555    -0.27000
C1626       C  0.07352109  0.00114647  0.13662736    -0.15000
C1627       C  0.09658084  0.98005049  0.14924116     0.35600
C1628       C  0.10961934  0.98544040  0.17890439    -0.26400
C1629       C  0.09846126  0.01023171  0.19722502    -0.15700
C1630       C  0.07480654  0.03081829  0.18493239     0.36700
N1631       N  0.06274468  0.05629095  0.20306517    -0.89900
H1632       H  0.04539807  0.04266210  0.14551221     0.17800
H1633       H  0.12792667  0.96967655  0.18811265     0.17800
N1634       N  0.10723338  0.95361530  0.13182970    -0.88900
H1635       H  0.04529285  0.06919250  0.19082427     0.35100
H1636       H  0.08281317  0.07054458  0.20727341     0.40200
H1637       H  0.08677322  0.93936018  0.12971559     0.39900
H1638       H  0.12520045  0.94114288  0.14388819     0.34800
C1639       C  0.02536272  0.35765472  0.05070718    -0.27000
C1640       C  0.00349042  0.36274434  0.02636060    -0.15000
C1641       C  0.98079210  0.34026393  0.01776629     0.35600
C1642       C  0.98027842  0.31289788  0.03409016    -0.26400
C1643       C  0.00204331  0.30777342  0.05876151    -0.15700
C1644       C  0.02506366  0.33017431  0.06671963     0.36700
N1645       N  0.04870373  0.32490276  0.09046156    -0.89900
H1646       H  0.04236920  0.37534843  0.05763265     0.17800
H1647       H  0.96267204  0.29552180  0.02770995     0.17800
N1648       N  0.95786529  0.34568457  0.99313368    -0.88900
H1649       H  0.04576969  0.34240159  0.10677153     0.35100
H1650       H  0.07253577  0.32645097  0.08099384     0.40200
H1651       H  0.94189788  0.36366360  0.99979685     0.39900
H1652       H  0.94292748  0.32668033  0.98962899     0.34800
C1653       C  0.06210271  0.27967339  0.15102077    -0.27000
C1654       C  0.05127209  0.25073978  0.14192226    -0.15000
C1655       C  0.06404201  0.22490173  0.15760262     0.35600
C1656       C  0.09038412  0.22817461  0.17827479    -0.26400
C1657       C  0.10335929  0.25695353  0.18495805    -0.15700
C1658       C  0.08811186  0.28303613  0.17203142     0.36700
N1659       N  0.10002904  0.31295415  0.17886599    -0.89900
H1660       H  0.05134434  0.29991139  0.14111809     0.17800
H1661       H  0.10087214  0.20801377  0.18902964     0.17800
N1662       N  0.04984383  0.19539289  0.15339703    -0.88900
H1663       H  0.08023292  0.32601792  0.18788593     0.35100
H1664       H  0.10752406  0.32292287  0.15833822     0.40200
H1665       H  0.04120659  0.18799098  0.17466011     0.39900
H1666       H  0.06869112  0.18023772  0.14607326     0.34800
C1667       C  0.97832523  0.15610025  0.01807318    -0.27000
C1668       C  0.00977806  0.14250160  0.01411353    -0.15000
C1669       C  0.03814861  0.15797253  0.02374063     0.35600
C1670       C  0.03445187  0.18482599  0.04077126    -0.26400
C1671       C  0.00273111  0.19561956  0.04995282    -0.15700
C1672       C  0.97457268  0.18302790  0.03542815     0.36700
N1673       N  0.94237551  0.19732491  0.03790739    -0.89900
H1674       H  0.95642676  0.14472497  0.00961054     0.17800
H1675       H  0.05671639  0.19642879  0.04785477     0.17800
N1676       N  0.07071138  0.14559213  0.01749264    -0.88900
H1677       H  0.92598378  0.18154139  0.04715091     0.35100
H1678       H  0.93425738  0.20256921  0.01582496     0.40200
H1679       H  0.08269088  0.14199204  0.03839186     0.39900
H1680       H  0.08405265  0.16188781  0.00540491     0.34800
C1681       C  0.96435965  0.32810432  0.57155796    -0.27000
C1682       C  0.99529683  0.31433953  0.57912717    -0.15000
C1683       C  0.02428850  0.32741311  0.56670848     0.35600
C1684       C  0.02216645  0.35637197  0.55321548    -0.26400
C1685       C  0.99161275  0.37226050  0.54995124    -0.15700
C1686       C  0.96225706  0.35696559  0.55772079     0.36700
N1687       N  0.93028752  0.37078913  0.55250489    -0.89900
H1688       H  0.94142764  0.31707335  0.57778168     0.17800
H1689       H  0.04489103  0.36654395  0.54517621     0.17800
N1690       N  0.05553836  0.31103152  0.56645693    -0.88900
H1691       H  0.91782216  0.37264628  0.57354115     0.35100
H1692       H  0.91681459  0.35617041  0.53834573     0.40200
H1693       H  0.05271987  0.29151313  0.55280820     0.39900
H1694       H  0.07422038  0.32385643  0.55627847     0.34800
C1695       C  0.95048934  0.16169984  0.56133864    -0.27000
C1696       C  0.97421913  0.13960578  0.57012011    -0.15000
C1697       C  0.99887481  0.14736479  0.59149083     0.35600
C1698       C  0.00111942  0.17760079  0.60180557    -0.26400
C1699       C  0.97883956  0.20022370  0.59166246    -0.15700
C1700       C  0.95251372  0.19201060  0.57221011     0.36700
N1701       N  0.92768762  0.21419494  0.56388597    -0.89900
H1702       H  0.93115684  0.15571477  0.54528218     0.17800
H1703       H  0.02096489  0.18366803  0.61729080     0.17800
N1704       N  0.02189719  0.12442209  0.60223343    -0.88900
H1705       H  0.90459198  0.20633026  0.57120118     0.35100
H1706       H  0.92727932  0.21553599  0.53999158     0.40200
H1707       H  0.00818847  0.10828528  0.61419245     0.39900
H1708       H  0.03850920  0.13381240  0.61792498     0.34800
C1709       C  0.05564293  0.22731938  0.67956278    -0.27000
C1710       C  0.05660996  0.23769600  0.64919838    -0.15000
C1711       C  0.08654230  0.23386384  0.63227672     0.35600
C1712       C  0.11541605  0.22290231  0.64692256    -0.26400
C1713       C  0.11528441  0.21538281  0.67808518    -0.15700
C1714       C  0.08462031  0.21644753  0.69426609     0.36700
N1715       N  0.08231199  0.20802369  0.72594110    -0.89900
H1716       H  0.03263886  0.22921103  0.69252479     0.17800
H1717       H  0.13886078  0.22250364  0.63453366     0.17800
N1718       N  0.08779886  0.24192458  0.60043744    -0.88900
H1719       H  0.07668709  0.22780382  0.73866416     0.35100
H1720       H  0.10497418  0.19937644  0.73395968     0.40200
H1721       H  0.07192037  0.22735572  0.58859625     0.39900
H1722       H  0.11164931  0.23805223  0.59141542     0.34800
C1723       C  0.21819506  0.32837301  0.61692540    -0.27000
C1724       C  0.22304450  0.29678540  0.61736135    -0.15000
C1725       C  0.22550995  0.28016778  0.58976308     0.35600
C1726       C  0.22485657  0.29591176  0.56187138    -0.26400
C1727       C  0.22254400  0.32813510  0.56113891    -0.15700
C1728       C  0.21919734  0.34426841  0.58941035     0.36700
N1729       N  0.21942906  0.37697468  0.59063054    -0.89900
H1730       H  0.21651907  0.34114313  0.63831538     0.17800
H1731       H  0.22871988  0.28271289  0.54116973     0.17800
N1732       N  0.22977432  0.24751471  0.59027598    -0.88900
H1733       H  0.23968269  0.38368901  0.60386958     0.35100
H1734       H  0.19766211  0.38463677  0.60166762     0.40200
H1735       H  0.23148852  0.23861876  0.56799731     0.39900
H1736       H  0.20833874  0.23847814  0.60005928     0.34800
C1737       C  0.24857128  0.21898393  0.90641549    -0.27000
C1738       C  0.27097957  0.20559668  0.88528800    -0.15000
C1739       C  0.29499147  0.18459564  0.89582902     0.35600
C1740       C  0.29413661  0.17538569  0.92649453    -0.26400
C1741       C  0.26936780  0.18652739  0.94710469    -0.15700
C1742       C  0.24686989  0.20951430  0.93652712     0.36700
N1743       N  0.22070331  0.22303493  0.95492268    -0.89900
H1744       H  0.23055421  0.23613868  0.89927537     0.17800
H1745       H  0.31213958  0.15822232  0.93291666     0.17800
N1746       N  0.31961588  0.17172227  0.87543746    -0.88900
H1747       H  0.23049606  0.23683569  0.97209272     0.35100
H1748       H  0.20556263  0.20633786  0.96416260     0.40200
H1749       H  0.31709328  0.14800629  0.87519393     0.39900
H1750       H  0.34307121  0.17669121  0.88422040     0.34800
C1751       C  0.52879289  0.30516177  0.94355975    -0.27000
C1752       C  0.50481624  0.29746259  0.92161706    -0.15000
C1753       C  0.48462262  0.32061563  0.90886429     0.35600
C1754       C  0.48804166  0.35080146  0.91883085    -0.26400
C1755       C  0.51129447  0.35825953  0.94127549    -0.15700
C1756       C  0.53221729  0.33548131  0.95357677     0.36700
N1757       N  0.55591833  0.34306802  0.97685515    -0.89900
H1758       H  0.54424589  0.28733608  0.95344645     0.17800
H1759       H  0.47162494  0.36838553  0.90978385     0.17800
N1760       N  0.45931309  0.31345395  0.88714511    -0.88900
H1761       H  0.56944957  0.32362478  0.98340451     0.35100
H1762       H  0.54263754  0.35060046  0.99623559     0.40200
H1763       H  0.46376332  0.32584160  0.86722784     0.39900
H1764       H  0.43636485  0.32071791  0.89621318     0.34800
C1765       C  0.45234751  0.17733855  0.96087286    -0.27000
C1766       C  0.48330824  0.18943416  0.95248985    -0.15000
C1767       C  0.51161067  0.18007627  0.97016842     0.35600
C1768       C  0.50911760  0.15575543  0.99074533    -0.26400
C1769       C  0.47891870  0.14117057  0.99539264    -0.15700
C1770       C  0.44999852  0.15351937  0.98189419     0.36700
N1771       N  0.41808975  0.14108899  0.98874578    -0.89900
H1772       H  0.42941764  0.18570678  0.95119154     0.17800
H1773       H  0.53143735  0.14698461  0.00163030     0.17800
N1774       N  0.54333833  0.19437918  0.96804688    -0.88900
H1775       H  0.40745600  0.13369477  0.96821982     0.35100
H1776       H  0.40294597  0.15864157  0.99778167     0.40200
H1777       H  0.54072043  0.21762761  0.97306957     0.39900
H1778       H  0.55365759  0.19120293  0.94633157     0.34800
C1779       C  0.43506929  0.25446863  0.83204153    -0.27000
C1780       C  0.43057546  0.25088755  0.86374978    -0.15000
C1781       C  0.39910991  0.25831010  0.87667199     0.35600
C1782       C  0.37232962  0.26646744  0.85765589    -0.26400
C1783       C  0.37615416  0.26777946  0.82576186    -0.15700
C1784       C  0.40807607  0.26250342  0.81288897     0.36700
N1785       N  0.41247376  0.26365896  0.78023634    -0.89900
H1786       H  0.45925908  0.24944144  0.82198921     0.17800
H1787       H  0.34785556  0.26992797  0.86776061     0.17800
N1788       N  0.39411386  0.25744446  0.90916786    -0.88900
H1789       H  0.43726337  0.25890465  0.77430487     0.35100
H1790       H  0.40742678  0.28609895  0.77350054     0.40200
H1791       H  0.37515427  0.24206476  0.91372314     0.39900
H1792       H  0.38603227  0.27912898  0.91651422     0.34800
C1793       C  0.57966034  0.01146408  0.38223141    -0.27000
C1794       C  0.54482975  0.00853441  0.38274649    -0.15000
C1795       C  0.52871643  0.00479508  0.35432283     0.35600
C1796       C  0.54757792  0.00462262  0.32652591    -0.26400
C1797       C  0.58271194  0.00812227  0.32589043    -0.15700
C1798       C  0.59845914  0.01130447  0.35500960     0.36700
N1799       N  0.63370196  0.01457428  0.35837980    -0.89900
H1800       H  0.59291959  0.01411376  0.40362915     0.17800
H1801       H  0.53414631  0.00144689  0.30551294     0.17800
N1802       N  0.49316616  0.00224896  0.35351000    -0.88900
H1803       H  0.64141582  0.03481394  0.34847236     0.35100
H1804       H  0.64636516  0.99594609  0.34855067     0.40200
H1805       H  0.48714824  0.98143570  0.36346014     0.39900
H1806       H  0.48482297  0.00118046  0.33088843     0.34800
C1807       C  0.59108148  0.99285892  0.15234020    -0.27000
C1808       C  0.56470146  0.01344451  0.14605240    -0.15000
C1809       C  0.55164638  0.03140445  0.17066394     0.35600
C1810       C  0.56468752  0.02811885  0.20033619    -0.26400
C1811       C  0.59090811  0.00742031  0.20655333    -0.15700
C1812       C  0.60430097  0.98986217  0.18203695     0.36700
N1813       N  0.63068067  0.96819125  0.18724826    -0.89900
H1814       H  0.60141356  0.97863735  0.13406764     0.17800
H1815       H  0.55430351  0.04215261  0.21871325     0.17800
N1816       N  0.52442473  0.05245696  0.16661212    -0.88900
H1817       H  0.65076711  0.97386183  0.17323486     0.35100
H1818       H  0.62256506  0.94662417  0.18046181     0.40200
H1819       H  0.50436824  0.04067998  0.15736481     0.39900
H1820       H  0.53172876  0.06933686  0.15135529     0.34800
C1821       C  0.69640138  0.10766184  0.26892102    -0.27000
C1822       C  0.68951809  0.12153180  0.24052340    -0.15000
C1823       C  0.67142714  0.10468233  0.21859841     0.35600
C1824       C  0.65875098  0.07565979  0.22641280    -0.26400
C1825       C  0.66386492  0.06304896  0.25564636    -0.15700
C1826       C  0.68426931  0.07868732  0.27647808     0.36700
N1827       N  0.69233849  0.06513731  0.30545172    -0.89900
H1828       H  0.71104106  0.11977352  0.28569640     0.17800
H1829       H  0.64337639  0.06356849  0.21017311     0.17800
N1830       N  0.66479305  0.11746982  0.18903922    -0.88900
H1831       H  0.70765050  0.07944259  0.31823299     0.35100
H1832       H  0.70618529  0.04515590  0.30092601     0.40200
H1833       H  0.64932223  0.13664822  0.19236016     0.39900
H1834       H  0.65152948  0.10210928  0.17552176     0.34800
C1835       C  0.58583537  0.22877436  0.30307570    -0.27000
C1836       C  0.60661638  0.25399096  0.30267664    -0.15000
C1837       C  0.59867624  0.28022091  0.32047792     0.35600
C1838       C  0.57066510  0.28003387  0.33960471    -0.26400
C1839       C  0.55090713  0.25415876  0.34133288    -0.15700
C1840       C  0.55767992  0.22885471  0.32191776     0.36700
N1841       N  0.53593877  0.20329231  0.32122848    -0.89900
H1842       H  0.59151868  0.20897254  0.28877885     0.17800
H1843       H  0.56540575  0.29943634  0.35439840     0.17800
N1844       N  0.61989202  0.30633673  0.32007236    -0.88900
H1845       H  0.54982127  0.18373637  0.32678901     0.35100
H1846       H  0.52729618  0.20062202  0.29882768     0.40200
H1847       H  0.64286883  0.29964384  0.32915471     0.39900
H1848       H  0.61040616  0.32368378  0.33442018     0.34800
C1849       C  0.91037391  0.23976909  0.17770036    -0.27000
C1850       C  0.88700055  0.26361807  0.17363985    -0.15000
C1851       C  0.89301708  0.28545786  0.15051803     0.35600
C1852       C  0.92048360  0.28156182  0.13077001    -0.26400
C1853       C  0.94210642  0.25643524  0.13371811    -0.15700
C1854       C  0.93774680  0.23609537  0.15820672     0.36700
N1855       N  0.96101685  0.21175324  0.16413674    -0.89900
H1856       H  0.90702291  0.22317106  0.19564786     0.17800
H1857       H  0.92432734  0.29770305  0.11246276     0.17800
N1858       N  0.87123351  0.31134135  0.14657894    -0.88900
H1859       H  0.98454049  0.22114198  0.16687123     0.35100
H1860       H  0.96172148  0.19671936  0.14543991     0.40200
H1861       H  0.86189778  0.31065515  0.12426775     0.39900
H1862       H  0.88524825  0.33110356  0.14894469     0.34800
C1863       C  0.90108642  0.53514413  0.32613757    -0.27000
C1864       C  0.90997326  0.51522630  0.30175062    -0.15000
C1865       C  0.93652236  0.49422138  0.30676122     0.35600
C1866       C  0.95271525  0.49324121  0.33534623    -0.26400
C1867       C  0.94320084  0.51280850  0.35982517    -0.15700
C1868       C  0.91712629  0.53437392  0.35447558     0.36700
N1869       N  0.90534737  0.55560386  0.37739633    -0.89900
H1870       H  0.88039136  0.55091138  0.32452945     0.17800
H1871       H  0.97254747  0.47651820  0.33842792     0.17800
N1872       N  0.94648611  0.47300404  0.28312826    -0.88900
H1873       H  0.92478139  0.56987763  0.38360577     0.35100
H1874       H  0.89668336  0.54363699  0.39635485     0.40200
H1875       H  0.94376606  0.45090140  0.29150228     0.39900
H1876       H  0.97169124  0.47620383  0.27840475     0.34800
C1877       C  0.88886891  0.53377826  0.16330354    -0.27000
C1878       C  0.90200120  0.51251010  0.18427741    -0.15000
C1879       C  0.92893812  0.49373316  0.17487622     0.35600
C1880       C  0.94183815  0.49591227  0.14499986    -0.26400
C1881       C  0.92890949  0.51701803  0.12381707    -0.15700
C1882       C  0.90234716  0.53653876  0.13332074     0.36700
N1883       N  0.88872614  0.55857013  0.11245279    -0.89900
H1884       H  0.86815170  0.54834761  0.17032667     0.17800
H1885       H  0.96210867  0.48064202  0.13820940     0.17800
N1886       N  0.94272700  0.47166446  0.19544119    -0.88900
H1887       H  0.86962357  0.57134364  0.12303705     0.35100
H1888       H  0.87791764  0.54659037  0.09433368     0.40200
H1889       H  0.96798009  0.47622071  0.19813372     0.39900
H1890       H  0.94071967  0.45006214  0.18529657     0.34800
C1891       C  0.81642414  0.43742389  0.27050630    -0.27000
C1892       C  0.83144913  0.44934199  0.24404313    -0.15000
C1893       C  0.83217231  0.43108459  0.21732925     0.35600
C1894       C  0.81945335  0.40115047  0.21790769    -0.26400
C1895       C  0.80602678  0.38852635  0.24494612    -0.15700
C1896       C  0.80389609  0.40761503  0.27127236     0.36700
N1897       N  0.78922248  0.39699359  0.29909194    -0.89900
H1898       H  0.81510538  0.45119374  0.29125905     0.17800
H1899       H  0.82099732  0.38747873  0.19712335     0.17800
N1900       N  0.84718174  0.44223239  0.18991604    -0.88900
H1901       H  0.76941651  0.41172705  0.30494920     0.35100
H1902       H  0.80700220  0.39830538  0.31643051     0.40200
H1903       H  0.82939491  0.44171713  0.17254414     0.39900
H1904       H  0.86667663  0.42730722  0.18367945     0.34800
C1905       C  0.26351664  0.81703004  0.56216371    -0.27000
C1906       C  0.24328101  0.84268371  0.55582929    -0.15000
C1907       C  0.22187116  0.85425931  0.57922502     0.35600
C1908       C  0.22011135  0.83949472  0.60752579    -0.26400
C1909       C  0.24006034  0.81388798  0.61361459    -0.15700
C1910       C  0.26249807  0.80280577  0.59101511     0.36700
N1911       N  0.28339309  0.77664286  0.59714641    -0.89900
H1912       H  0.28031714  0.80818887  0.54460490     0.17800
H1913       H  0.20318009  0.84831326  0.62502131     0.17800
N1914       N  0.20117596  0.88061251  0.57443261    -0.88900
H1915       H  0.29782580  0.77088781  0.57788377     0.35100
H1916       H  0.30003523  0.78279772  0.61436362     0.40200
H1917       H  0.20732177  0.89715901  0.59077786     0.39900
H1918       H  0.17647054  0.87457187  0.57822198     0.34800
C1919       C  0.11832135  0.90558723  0.52864903    -0.27000
C1920       C  0.11761392  0.93682330  0.53545931    -0.15000
C1921       C  0.14747644  0.95329884  0.53503218     0.35600
C1922       C  0.17729883  0.93836642  0.52596071    -0.26400
C1923       C  0.17724997  0.90781807  0.51615628    -0.15700
C1924       C  0.14773754  0.89083168  0.51894205     0.36700
N1925       N  0.14749779  0.85887257  0.51103215    -0.89900
H1926       H  0.09519432  0.89321768  0.52846847     0.17800
H1927       H  0.20010507  0.95109151  0.52446917     0.17800
N1928       N  0.14705486  0.98540797  0.54217397    -0.88900
H1929       H  0.12373857  0.84998198  0.51395250     0.35100
H1930       H  0.16308758  0.84740099  0.52634618     0.40200
H1931       H  0.13349711  0.99659127  0.52512463     0.39900
H1932       H  0.17113604  0.99399319  0.54123702     0.34800
C1933       C  0.30893675  0.93522777  0.47511290    -0.27000
C1934       C  0.29897583  0.91538017  0.49847386    -0.15000
C1935       C  0.32100087  0.90926981  0.52259394     0.35600
C1936       C  0.35240019  0.92283895  0.52299951    -0.26400
C1937       C  0.36298488  0.94216199  0.49927724    -0.15700
C1938       C  0.34064279  0.94858502  0.47512402     0.36700
N1939       N  0.34976898  0.96896244  0.45099852    -0.89900
H1940       H  0.29216309  0.93957246  0.45622890     0.17800
H1941       H  0.36894763  0.91758516  0.54181914     0.17800
N1942       N  0.31231916  0.88800625  0.54591208    -0.88900
H1943       H  0.32969560  0.97279396  0.43631215     0.35100
H1944       H  0.36816203  0.95791264  0.43777587     0.40200
H1945       H  0.31352473  0.89918558  0.56713352     0.39900
H1946       H  0.33004869  0.87026243  0.54567211     0.34800
C1947       C  0.23183006  0.84349387  0.38126437    -0.27000
C1948       C  0.24068601  0.81264963  0.37873849    -0.15000
C1949       C  0.24531988  0.79544980  0.40559608     0.35600
C1950       C  0.24195826  0.80970815  0.43432521    -0.26400
C1951       C  0.23471644  0.84125953  0.43719794    -0.15700
C1952       C  0.22903808  0.85807076  0.40967056     0.36700
N1953       N  0.22111721  0.89015119  0.40915703    -0.89900
H1954       H  0.22800871  0.85682912  0.36072391     0.17800
H1955       H  0.24655954  0.79576402  0.45409284     0.17800
N1956       N  0.25320232  0.76343034  0.40449245    -0.88900
H1957       H  0.23933019  0.90269109  0.42027387     0.35100
H1958       H  0.19783534  0.89444514  0.41900497     0.40200
H1959       H  0.27631737  0.76020870  0.39382603     0.39900
H1960       H  0.23510507  0.75245129  0.39150753     0.34800
C1961       C  0.28730718  0.59429254  0.24422586    -0.27000
C1962       C  0.30296094  0.62198595  0.25102951    -0.15000
C1963       C  0.33630643  0.62092140  0.26093856     0.35600
C1964       C  0.35415442  0.59304886  0.26120559    -0.26400
C1965       C  0.33947479  0.56555074  0.25220166    -0.15700
C1966       C  0.30505633  0.56606850  0.24485502     0.36700
N1967       N  0.28769523  0.53884323  0.23657436    -0.89900
H1968       H  0.26155020  0.59467438  0.23706716     0.17800
H1969       H  0.38030423  0.59310890  0.26712959     0.17800
N1970       N  0.35231312  0.64833058  0.27058760    -0.88900
H1971       H  0.26849937  0.53621578  0.25253008     0.35100
H1972       H  0.30304051  0.51954798  0.23857919     0.40200
H1973       H  0.37348642  0.65109470  0.25696821     0.39900
H1974       H  0.36008074  0.64544103  0.29322098     0.34800
C1975       C  0.16900582  0.89927808  0.24269693    -0.27000
C1976       C  0.20396085  0.89718010  0.24290364    -0.15000
C1977       C  0.22179815  0.92481324  0.24495404     0.35600
C1978       C  0.20425767  0.95333057  0.24818797    -0.26400
C1979       C  0.16922132  0.95487775  0.24993222    -0.15700
C1980       C  0.15162550  0.92736744  0.24612976     0.36700
N1981       N  0.11584983  0.92783757  0.24690952    -0.89900
H1982       H  0.15490304  0.87851148  0.24063206     0.17800
H1983       H  0.21801738  0.97419773  0.25104254     0.17800
N1984       N  0.25751475  0.92383140  0.24516582    -0.88900
H1985       H  0.10661211  0.90580148  0.24435533     0.35100
H1986       H  0.10740668  0.94022812  0.22809602     0.40200
H1987       H  0.26498357  0.91242674  0.26497906     0.39900
H1988       H  0.26686430  0.94590659  0.24682475     0.34800
C1989       C  0.08430471  0.72151452  0.35845965    -0.27000
C1990       C  0.06100994  0.74345329  0.34847917    -0.15000
C1991       C  0.06782239  0.76035068  0.32203355     0.35600
C1992       C  0.09734102  0.75492366  0.30596287    -0.26400
C1993       C  0.12216825  0.73498885  0.31711922    -0.15700
C1994       C  0.11544954  0.71782338  0.34386272     0.36700
N1995       N  0.13991804  0.69846883  0.35825835    -0.89900
H1996       H  0.07961738  0.70937351  0.37953957     0.17800
H1997       H  0.10211724  0.76846470  0.28579074     0.17800
N1998       N  0.04634824  0.78477143  0.31226284    -0.88900
H1999       H  0.14438629  0.70752675  0.38009136     0.35100
H2000       H  0.16264637  0.69860795  0.34676292     0.40200
H2001       H  0.04496919  0.80132896  0.32964803     0.39900
H2002       H  0.02261129  0.77616399  0.30895690     0.34800
C2003       C  0.03803150  0.68515338  0.43785538    -0.27000
C2004       C  0.01103677  0.69436320  0.41941466    -0.15000
C2005       C  0.98945411  0.67192268  0.40835240     0.35600
C2006       C  0.99490083  0.64116040  0.41582256    -0.26400
C2007       C  0.02145304  0.63173517  0.43469047    -0.15700
C2008       C  0.04353740  0.65413016  0.44555181     0.36700
N2009       N  0.07060239  0.64564550  0.46525521    -0.89900
H2010       H  0.05513471  0.70219532  0.44604125     0.17800
H2011       H  0.97748669  0.62452408  0.40731261     0.17800
N2012       N  0.96108431  0.68035798  0.39040208    -0.88900
H2013       H  0.08343246  0.66498446  0.47241721     0.35100
H2014       H  0.08745782  0.63246391  0.45222418     0.40200
H2015       H  0.93975270  0.67312355  0.40182532     0.39900
H2016       H  0.96271352  0.66862115  0.36945715     0.34800
C2017       C  0.03821020  0.83467448  0.42621891    -0.27000
C2018       C  0.01611093  0.81136154  0.43453585    -0.15000
C2019       C  0.99186765  0.81867856  0.45752789     0.35600
C2020       C  0.98841250  0.84871919  0.46866005    -0.26400
C2021       C  0.00865663  0.87226929  0.45798328    -0.15700
C2022       C  0.03461039  0.86462238  0.43736160     0.36700
N2023       N  0.05660011  0.88744382  0.42619334    -0.89900
H2024       H  0.05729955  0.83119137  0.40918871     0.17800
H2025       H  0.96897420  0.85373051  0.48534004     0.17800
N2026       N  0.96949116  0.79656550  0.46949619    -0.88900
H2027       H  0.05448387  0.88825428  0.40234124     0.35100
H2028       H  0.08097024  0.88076986  0.43148632     0.40200
H2029       H  0.98320340  0.77961080  0.48065152     0.39900
H2030       H  0.95576942  0.78685577  0.45179407     0.34800
C2031       C  0.75555609  0.23691030  0.39530207    -0.27000
C2032       C  0.72622669  0.24200562  0.37884619    -0.15000
C2033       C  0.69642884  0.22916032  0.38986272     0.35600
C2034       C  0.69748217  0.20805606  0.41395166    -0.26400
C2035       C  0.72759642  0.19981362  0.42816430    -0.15700
C2036       C  0.75639640  0.21643466  0.42002533     0.36700
N2037       N  0.78704503  0.21168690  0.43602981    -0.89900
H2038       H  0.77854224  0.24687490  0.38750216     0.17800
H2039       H  0.67445771  0.19802097  0.42097746     0.17800
N2040       N  0.66531418  0.23635546  0.37522486    -0.88900
H2041       H  0.79436568  0.23268933  0.44509591     0.35100
H2042       H  0.80513725  0.20436673  0.42017537     0.40200
H2043       H  0.66043318  0.25965812  0.37866227     0.39900
H2044       H  0.64576240  0.22473923  0.38550806     0.34800
C2045       C  0.83637468  0.07530945  0.45249503    -0.27000
C2046       C  0.85809783  0.08438592  0.47587599    -0.15000
C2047       C  0.84880699  0.10922499  0.49520103     0.35600
C2048       C  0.81733742  0.12313569  0.49197864    -0.26400
C2049       C  0.79502360  0.11316034  0.46964351    -0.15700
C2050       C  0.80500647  0.08973060  0.44912179     0.36700
N2051       N  0.78323690  0.08038980  0.42508348    -0.89900
H2052       H  0.84341719  0.05655720  0.43730292     0.17800
H2053       H  0.81050657  0.14243959  0.50646631     0.17800
N2054       N  0.87163512  0.12052982  0.51772833    -0.88900
H2055       H  0.77873144  0.05712158  0.42766462     0.35100
H2056       H  0.79563170  0.08324178  0.40421517     0.40200
H2057       H  0.86107761  0.13895130  0.52995261     0.39900
H2058       H  0.89220533  0.12897572  0.50599056     0.34800
C2059       C  0.64510477  0.13259172  0.50426388    -0.27000
C2060       C  0.67436954  0.11643584  0.49579134    -0.15000
C2061       C  0.67718132  0.08543095  0.50375919     0.35600
C2062       C  0.65078020  0.07105190  0.51893602    -0.26400
C2063       C  0.62108042  0.08684419  0.52688860    -0.15700
C2064       C  0.61855070  0.11838457  0.51958799     0.36700
N2065       N  0.58901697  0.13645243  0.52563367    -0.89900
H2066       H  0.64268369  0.15659142  0.49876914     0.17800
H2067       H  0.65291047  0.04676998  0.52326996     0.17800
N2068       N  0.70628147  0.06797760  0.49526324    -0.88900
H2069       H  0.59537421  0.15380279  0.54102688     0.35100
H2070       H  0.57059835  0.12388394  0.53631284     0.40200
H2071       H  0.69896770  0.04980009  0.48128854     0.39900
H2072       H  0.71661287  0.05888787  0.51520272     0.34800
C2073       C  0.20584676  0.55996116  0.74290487    -0.27000
C2074       C  0.17114550  0.55678758  0.74767637    -0.15000
C2075       C  0.15160206  0.58408298  0.75127077     0.35600
C2076       C  0.16680663  0.61229323  0.75143416    -0.26400
C2077       C  0.20119766  0.61523643  0.74782975    -0.15700
C2078       C  0.22098248  0.58883080  0.74294664     0.36700
N2079       N  0.25625587  0.59129543  0.73836146    -0.89900
H2080       H  0.22175272  0.54034493  0.73886607     0.17800
H2081       H  0.15104922  0.63245524  0.75414214     0.17800
N2082       N  0.11604424  0.58462113  0.75448693    -0.88900
H2083       H  0.26723776  0.56975557  0.73468393     0.35100
H2084       H  0.26634361  0.59990676  0.75864668     0.40200
H2085       H  0.10873495  0.57384146  0.77451812     0.39900
H2086       H  0.10495875  0.57467348  0.73541948     0.34800
C2087       C  0.21894260  0.40201290  0.75872842    -0.27000
C2088       C  0.20690806  0.38037650  0.73772252    -0.15000
C2089       C  0.18058995  0.38922513  0.71802766     0.35600
C2090       C  0.16529408  0.41805104  0.72148164    -0.26400
C2091       C  0.17667322  0.43920165  0.74301605    -0.15700
C2092       C  0.20422177  0.43125025  0.76143099     0.36700
N2093       N  0.21657764  0.45228430  0.78377617    -0.89900
H2094       H  0.23916049  0.39598131  0.77395452     0.17800
H2095       H  0.14457949  0.42400463  0.70686550     0.17800
N2096       N  0.16937861  0.36924318  0.69418202    -0.88900
H2097       H  0.24162576  0.45606052  0.77882858     0.35100
H2098       H  0.21525678  0.44200980  0.80526501     0.40200
H2099       H  0.17222141  0.38033472  0.67324016     0.39900
H2100       H  0.14402742  0.36552012  0.69759652     0.34800
C2101       C  0.04862564  0.50359762  0.65700120    -0.27000
C2102       C  0.06450534  0.48860839  0.63200110    -0.15000
C2103       C  0.09443956  0.47218708  0.63792394     0.35600
C2104       C  0.10843971  0.47246519  0.66761888    -0.26400
C2105       C  0.09318406  0.48852568  0.69210971    -0.15700
C2106       C  0.06264461  0.50388967  0.68653268     0.36700
N2107       N  0.04586030  0.52090962  0.71034345    -0.89900
H2108       H  0.02551879  0.51611137  0.65344775     0.17800
H2109       H  0.13257623  0.46174116  0.67095606     0.17800
N2110       N  0.11182983  0.45651605  0.61358852    -0.88900
H2111       H  0.06144409  0.53819073  0.71800143     0.35100
H2112       H  0.04152201  0.50619189  0.72859720     0.40200
H2113       H  0.11445514  0.43355506  0.61959146     0.39900
H2114       H  0.13560765  0.46563228  0.61187702     0.34800
C2115       C  0.06545516  0.48334171  0.80836621    -0.27000
C2116       C  0.10035665  0.48327328  0.80652630    -0.15000
C2117       C  0.11869237  0.47891615  0.83409484     0.35600
C2118       C  0.10181411  0.47649981  0.86236550    -0.26400
C2119       C  0.06702487  0.47805984  0.86426725    -0.15700
C2120       C  0.04878042  0.48114633  0.83678771     0.36700
N2121       N  0.01323314  0.48348036  0.83730367    -0.89900
H2122       H  0.05102163  0.48707630  0.78780320     0.17800
H2123       H  0.11615707  0.47450719  0.88323712     0.17800
N2124       N  0.15444623  0.47781132  0.83457615    -0.88900
H2125       H  0.00627142  0.50242381  0.85077243     0.35100
H2126       H  0.00405171  0.46392763  0.84770923     0.40200
H2127       H  0.16444490  0.47878407  0.81256950     0.39900
H2128       H  0.16170556  0.45651032  0.84311445     0.34800
C2129       C  0.26876176  0.69136456  0.89182283    -0.27000
C2130       C  0.23744661  0.69270150  0.87751550    -0.15000
C2131       C  0.20960261  0.68085679  0.89296314     0.35600
C2132       C  0.21406525  0.66717527  0.92175015    -0.26400
C2133       C  0.24538822  0.66625425  0.93576133    -0.15700
C2134       C  0.27309998  0.67848400  0.92062170     0.36700
N2135       N  0.30595658  0.67837890  0.93356781    -0.89900
H2136       H  0.29050268  0.70033504  0.88049933     0.17800
H2137       H  0.19289062  0.65792734  0.93373329     0.17800
N2138       N  0.17692358  0.68367789  0.88004990    -0.88900
H2139       H  0.32150184  0.66543186  0.91900529     0.35100
H2140       H  0.30679194  0.66785077  0.95487737     0.40200
H2141       H  0.17087722  0.70696870  0.87962379     0.39900
H2142       H  0.15932175  0.67359242  0.89427982     0.34800
C2143       C  0.16040861  0.61128177  0.98122029    -0.27000
C2144       C  0.19035822  0.59578182  0.98741437    -0.15000
C2145       C  0.19089901  0.56376117  0.98959243     0.35600
C2146       C  0.16144265  0.54775598  0.98577697    -0.26400
C2147       C  0.13115912  0.56318944  0.98027975    -0.15700
C2148       C  0.13057853  0.59533313  0.97812483     0.36700
N2149       N  0.09957444  0.61173200  0.97471001    -0.89900
H2150       H  0.16012673  0.63599644  0.98015496     0.17800
H2151       H  0.16196558  0.52314919  0.98823049     0.17800
N2152       N  0.22063982  0.54717537  0.99725313    -0.88900
H2153       H  0.10355566  0.63523416  0.97376440     0.35100
H2154       H  0.08533865  0.60812283  0.99442374     0.40200
H2155       H  0.22892548  0.55529255  0.01843198     0.39900
H2156       H  0.23873939  0.55165220  0.98070555     0.34800
C2157       C  0.34560083  0.54946807  0.99440559    -0.27000
C2158       C  0.36696567  0.55656182  0.96994806    -0.15000
C2159       C  0.35640610  0.57845044  0.94835621     0.35600
C2160       C  0.32591469  0.59443439  0.95330947    -0.26400
C2161       C  0.30693474  0.58960914  0.97994159    -0.15700
C2162       C  0.31632535  0.56616728  0.99992464     0.36700
N2163       N  0.29688837  0.56018973  0.02673886    -0.89900
H2164       H  0.35284582  0.53215412  0.01077218     0.17800
H2165       H  0.31829308  0.61223938  0.93769672     0.17800
N2166       N  0.37733229  0.58567708  0.92274940    -0.88900
H2167       H  0.31192787  0.56337023  0.04594078     0.35100
H2168       H  0.29004559  0.53727950  0.02601155     0.40200
H2169       H  0.39886535  0.59556809  0.93139145     0.39900
H2170       H  0.36578538  0.60217218  0.90907639     0.34800
C2171       C  0.25662205  0.69943184  0.05543122    -0.27000
C2172       C  0.25637648  0.66727952  0.05301693    -0.15000
C2173       C  0.25833850  0.65026712  0.08050609     0.35600
C2174       C  0.25993907  0.66527593  0.10904423    -0.26400
C2175       C  0.25898957  0.69715371  0.11112202    -0.15700
C2176       C  0.25758083  0.71433427  0.08394641     0.36700
N2177       N  0.25760715  0.74705083  0.08456706    -0.89900
H2178       H  0.25566610  0.71369661  0.03551111     0.17800
H2179       H  0.26080763  0.65187555  0.12978630     0.17800
N2180       N  0.25813568  0.61755773  0.07959766    -0.88900
H2181       H  0.27866100  0.75414711  0.09645284     0.35100
H2182       H  0.23642820  0.75500467  0.09629482     0.40200
H2183       H  0.27980468  0.60944335  0.09011415     0.39900
H2184       H  0.23777421  0.61029607  0.09243280     0.34800
C2185       C  0.72637482  0.28508334  0.05169862    -0.27000
C2186       C  0.75580727  0.29834982  0.04128392    -0.15000
C2187       C  0.78569718  0.29303584  0.05701043     0.35600
C2188       C  0.78494125  0.27734055  0.08487564    -0.26400
C2189       C  0.75492750  0.26650550  0.09696961    -0.15700
C2190       C  0.72560108  0.26907940  0.07952367     0.36700
N2191       N  0.69487178  0.25722776  0.09094185    -0.89900
H2192       H  0.70361713  0.28871531  0.03894324     0.17800
H2193       H  0.80753942  0.27508936  0.09817119     0.17800
N2194       N  0.81637500  0.30462169  0.04523446    -0.88900
H2195       H  0.67582760  0.26065798  0.07505272     0.35100
H2196       H  0.68815523  0.26984599  0.11053433     0.40200
H2197       H  0.82132613  0.29346169  0.02437959     0.39900
H2198       H  0.83608440  0.29907229  0.05981450     0.34800
C2199       C  0.82319859  0.38663451  0.02701508    -0.27000
C2200       C  0.79751033  0.39337777  0.00658885    -0.15000
C2201       C  0.79785539  0.42134370  0.99069382     0.35600
C2202       C  0.82566009  0.43994235  0.99259034    -0.26400
C2203       C  0.85341522  0.43160248  0.01032469    -0.15700
C2204       C  0.85104504  0.40535084  0.02920688     0.36700
N2205       N  0.87685188  0.39614271  0.04980700    -0.89900
H2206       H  0.82272083  0.36563804  0.03987247     0.17800
H2207       H  0.82594762  0.46058575  0.97910891     0.17800
N2208       N  0.77038030  0.43138565  0.97231933    -0.88900
H2209       H  0.88036502  0.41367365  0.06581845     0.35100
H2210       H  0.89877996  0.39200718  0.03739832     0.40200
H2211       H  0.74894853  0.43171192  0.98596658     0.39900
H2212       H  0.76700682  0.41613317  0.95414789     0.34800
C2213       C  0.68816086  0.40608140  0.02652611    -0.27000
C2214       C  0.68577721  0.37564825  0.01668892    -0.15000
C2215       C  0.65427788  0.36230779  0.01418389     0.35600
C2216       C  0.62562260  0.38039560  0.01834910    -0.26400
C2217       C  0.62796935  0.41160740  0.02487608    -0.15700
C2218       C  0.65943693  0.42433576  0.03028768     0.36700
N2219       N  0.66293827  0.45610975  0.03733902    -0.89900
H2220       H  0.71234375  0.41638897  0.02862166     0.17800
H2221       H  0.60150251  0.37049361  0.01449435     0.17800
N2222       N  0.65142407  0.33075817  0.00577040    -0.88900
H2223       H  0.64953863  0.46099073  0.05743285     0.35100
H2224       H  0.65245941  0.46883078  0.01956862     0.40200
H2225       H  0.63777622  0.32947662  0.98548205     0.39900
H2226       H  0.63792420  0.31993206  0.02294160     0.34800
C2227       C  0.30599801  0.92506641  0.78472673    -0.27000
C2228       C  0.32271514  0.93633881  0.75860982    -0.15000
C2229       C  0.31180395  0.92617129  0.72952730     0.35600
C2230       C  0.28947679  0.90207903  0.72737885    -0.26400
C2231       C  0.27618165  0.88847857  0.75359007    -0.15700
C2232       C  0.28329608  0.90109918  0.78247765     0.36700
N2233       N  0.26864942  0.88895571  0.80965033    -0.89900
H2234       H  0.31033983  0.93469429  0.80722023     0.17800
H2235       H  0.28313501  0.89334394  0.70486396     0.17800
N2236       N  0.32286105  0.94031132  0.70194623    -0.88900
H2237       H  0.25565139  0.90667112  0.82092310     0.35100
H2238       H  0.28782538  0.88153229  0.82400510     0.40200
H2239       H  0.30198997  0.94875895  0.69039428     0.39900
H2240       H  0.33425845  0.92352187  0.68808279     0.34800
C2241       C  0.29460499  0.08505085  0.73365986    -0.27000
C2242       C  0.29587856  0.10542656  0.75863914    -0.15000
C2243       C  0.31560193  0.09720425  0.78432945     0.35600
C2244       C  0.33360381  0.06952697  0.78434816    -0.26400
C2245       C  0.33198555  0.04919212  0.75967132    -0.15700
C2246       C  0.31254698  0.05713816  0.73397094     0.36700
N2247       N  0.31161394  0.03712037  0.70785441    -0.89900
H2248       H  0.28043241  0.09111225  0.71349950     0.17800
H2249       H  0.34807213  0.06354423  0.80427010     0.17800
N2250       N  0.31710477  0.11667717  0.81086290    -0.88900
H2251       H  0.28683522  0.03150588  0.70390098     0.35100
H2252       H  0.32025246  0.04904265  0.68884888     0.40200
H2253       H  0.34195379  0.12232452  0.81443719     0.39900
H2254       H  0.30897010  0.10438654  0.82981774     0.34800
C2255       C  0.43398005  0.97101952  0.86911379    -0.27000
C2256       C  0.42131074  0.99290148  0.89014779    -0.15000
C2257       C  0.39889698  0.01566192  0.87904235     0.35600
C2258       C  0.38968434  0.01572643  0.84781559    -0.26400
C2259       C  0.40161025  0.99337213  0.82719758    -0.15700
C2260       C  0.42429021  0.97094889  0.83799454     0.36700
N2261       N  0.43667786  0.94760364  0.81734545    -0.89900
H2262       H  0.45149325  0.95377285  0.87696751     0.17800
H2263       H  0.37132277  0.03214704  0.84004054     0.17800
N2264       N  0.38438136  0.03799888  0.89966717    -0.88900
H2265       H  0.45292872  0.93268443  0.82866429     0.35100
H2266       H  0.45061896  0.95831534  0.80040406     0.40200
H2267       H  0.36929524  0.02642897  0.91513040     0.39900
H2268       H  0.36880971  0.05319614  0.88792644     0.34800
C2269       C  0.41809109  0.02699985  0.70253162    -0.27000
C2270       C  0.42004053  0.99833680  0.71678387    -0.15000
C2271       C  0.44270973  0.97626633  0.70463695     0.35600
C2272       C  0.46020758  0.98211787  0.67715605    -0.26400
C2273       C  0.45655886  0.00996316  0.66162675    -0.15700
C2274       C  0.43589747  0.03309236  0.67523367     0.36700
N2275       N  0.43105905  0.06246934  0.66138288    -0.89900
H2276       H  0.40097542  0.04425924  0.71157448     0.17800
H2277       H  0.47582778  0.96426605  0.66704137     0.17800
N2278       N  0.44722020  0.94756689  0.71988093    -0.88900
H2279       H  0.40622281  0.06419665  0.65455931     0.35100
H2280       H  0.44559055  0.06474490  0.64170745     0.40200
H2281       H  0.45734723  0.95215485  0.74141952     0.39900
H2282       H  0.46458074  0.93374641  0.70812476     0.34800
C2283       C  0.42808487  0.79376055  0.14066200    -0.27000
C2284       C  0.44790162  0.76788403  0.14698743    -0.15000
C2285       C  0.44008169  0.74985517  0.17235115     0.35600
C2286       C  0.41135576  0.75641209  0.18949574    -0.26400
C2287       C  0.38913088  0.78002624  0.18109175    -0.15700
C2288       C  0.39840056  0.79989458  0.15732387     0.36700
N2289       N  0.37650294  0.82448208  0.14851035    -0.89900
H2290       H  0.43435270  0.80777017  0.12126495     0.17800
H2291       H  0.40503565  0.74130252  0.20809387     0.17800
N2292       N  0.46031234  0.72370821  0.17965302    -0.88900
H2293       H  0.38631075  0.83599416  0.12972717     0.35100
H2294       H  0.37558377  0.84020748  0.16667574     0.40200
H2295       H  0.44544733  0.70437864  0.17854830     0.39900
H2296       H  0.46852585  0.72621223  0.20220953     0.34800
C2297       C  0.46598310  0.66976245  0.07394384    -0.27000
C2298       C  0.49148255  0.69037784  0.06707712    -0.15000
C2299       C  0.51637381  0.68068461  0.04550639     0.35600
C2300       C  0.51638070  0.65098065  0.03384194    -0.26400
C2301       C  0.49184631  0.63014999  0.04198337    -0.15700
C2302       C  0.46556361  0.64015039  0.06145276     0.36700
N2303       N  0.43875036  0.62022621  0.06912452    -0.89900
H2304       H  0.44613639  0.67584668  0.08946132     0.17800
H2305       H  0.53624210  0.64419268  0.01820158     0.17800
N2306       N  0.54239344  0.69999388  0.03481568    -0.88900
H2307       H  0.42461878  0.61716982  0.04931937     0.35100
H2308       H  0.42273129  0.63038753  0.08533704     0.40200
H2309       H  0.55661232  0.70799726  0.05298864     0.39900
H2310       H  0.53224308  0.71821466  0.02262731     0.34800
C2311       C  0.53196334  0.81839085  0.05736647    -0.27000
C2312       C  0.50142758  0.80499757  0.06366921    -0.15000
C2313       C  0.47163053  0.81951900  0.05436183     0.35600
C2314       C  0.47299832  0.84824513  0.04031330    -0.26400
C2315       C  0.50355918  0.86251923  0.03553755    -0.15700
C2316       C  0.53335494  0.84690461  0.04340043     0.36700
N2317       N  0.56536725  0.85923481  0.03705829    -0.89900
H2318       H  0.55488196  0.80672301  0.06361728     0.17800
H2319       H  0.45009720  0.86021592  0.03453579     0.17800
N2320       N  0.44014895  0.80565660  0.06037682    -0.88900
H2321       H  0.56827698  0.87923735  0.04987624     0.35100
H2322       H  0.56652296  0.86439909  0.01374024     0.40200
H2323       H  0.43908268  0.78559664  0.04729550     0.39900
H2324       H  0.42060082  0.81975765  0.05299213     0.34800
C2325       C  0.63267259  0.91512878  0.01232200    -0.27000
C2326       C  0.63414300  0.94702480  0.01213953    -0.15000
C2327       C  0.66470576  0.96137113  0.00641119     0.35600
C2328       C  0.69323664  0.94314610  0.00065929    -0.26400
C2329       C  0.69096196  0.91131708  0.99896079    -0.15700
C2330       C  0.66061105  0.89707090  0.00528860     0.36700
N2331       N  0.65805988  0.86436740  0.00340982    -0.89900
H2332       H  0.60910620  0.90429342  0.01631743     0.17800
H2333       H  0.71682221  0.95373803  0.99582256     0.17800
N2334       N  0.66668946  0.99410323  0.00643980    -0.88900
H2335       H  0.63382774  0.85760378  0.00833152     0.35100
H2336       H  0.67330787  0.85488782  0.02025822     0.40200
H2337       H  0.65411345  0.00202102  0.98710892     0.39900
H2338       H  0.69137584  0.00074152  0.00375489     0.34800
C2339       C  0.82548987  0.91087741  0.01524401    -0.27000
C2340       C  0.80850320  0.91240265  0.98734880    -0.15000
C2341       C  0.82134377  0.92980978  0.96316177     0.35600
C2342       C  0.85204919  0.94378371  0.96653875    -0.26400
C2343       C  0.86947834  0.94148507  0.99409152    -0.15700
C2344       C  0.85587363  0.92548473  0.01885287     0.36700
N2345       N  0.87345676  0.92311519  0.04722328    -0.89900
H2346       H  0.81587500  0.89732454  0.03384545     0.17800
H2347       H  0.86209798  0.95680482  0.94773264     0.17800
N2348       N  0.80306282  0.93359903  0.93532348    -0.88900
H2349       H  0.87784758  0.89997400  0.05160129     0.35100
H2350       H  0.85807501  0.93198125  0.06465008     0.40200
H2351       H  0.81797734  0.92564084  0.91714388     0.39900
H2352       H  0.79863205  0.95695210  0.93222501     0.34800
C2353       C  0.73853002  0.84627311  0.10064965    -0.27000
C2354       C  0.75962548  0.82128797  0.10719063    -0.15000
C2355       C  0.77808167  0.80748853  0.08259137     0.35600
C2356       C  0.77542523  0.81909671  0.05303399    -0.26400
C2357       C  0.75438335  0.84389525  0.04660771    -0.15700
C2358       C  0.73551667  0.85744887  0.07069145     0.36700
N2359       N  0.71224209  0.88175351  0.06478964    -0.89900
H2360       H  0.72381420  0.85699096  0.11876954     0.17800
H2361       H  0.79003941  0.80844739  0.03479676     0.17800
N2362       N  0.79882963  0.78088750  0.08625477    -0.88900
H2363       H  0.71875849  0.90061131  0.07818696     0.35100
H2364       H  0.68869130  0.87484078  0.07188500     0.40200
H2365       H  0.78465330  0.76345511  0.09558953     0.39900
H2366       H  0.81870873  0.78612489  0.10057517     0.34800
C2367       C  0.70488532  0.95298824  0.26144340    -0.27000
C2368       C  0.66984171  0.95124996  0.26126887    -0.15000
C2369       C  0.65561922  0.92235738  0.25625016     0.35600
C2370       C  0.67599915  0.89639604  0.25223394    -0.26400
C2371       C  0.71099615  0.89759798  0.25272442    -0.15700
C2372       C  0.72561889  0.92645770  0.25722044     0.36700
N2373       N  0.76116926  0.92888259  0.25703024    -0.89900
H2374       H  0.71607356  0.97501513  0.26522277     0.17800
H2375       H  0.66400346  0.87469072  0.24890782     0.17800
N2376       N  0.62033529  0.91858434  0.25449387    -0.88900
H2377       H  0.76794279  0.95159086  0.26049251     0.35100
H2378       H  0.76962533  0.92261045  0.23512780     0.40200
H2379       H  0.61084704  0.93321539  0.23778476     0.39900
H2380       H  0.60951838  0.92440758  0.27557914     0.34800
C2381       C  0.91237048  0.75506291  0.30998907    -0.27000
C2382       C  0.88407971  0.77027678  0.32214590    -0.15000
C2383       C  0.88489749  0.78066277  0.35276780     0.35600
C2384       C  0.91383501  0.77633110  0.37013599    -0.26400
C2385       C  0.94286966  0.76218006  0.35770406    -0.15700
C2386       C  0.94169593  0.75128981  0.32719789     0.36700
N2387       N  0.97023106  0.73700087  0.31314875    -0.89900
H2388       H  0.91174299  0.74609099  0.28676561     0.17800
H2389       H  0.91338735  0.78403476  0.39379169     0.17800
N2390       N  0.85631555  0.79460017  0.36720249    -0.88900
H2391       H  0.97581259  0.74898420  0.29322834     0.35100
H2392       H  0.96381382  0.71486330  0.30659464     0.40200
H2393       H  0.83665282  0.77933054  0.36603733     0.39900
H2394       H  0.84974443  0.81418882  0.35500133     0.34800
C2395       C  0.77519394  0.59660082  0.23628871    -0.27000
C2396       C  0.79476446  0.62119786  0.22703532    -0.15000
C2397       C  0.82808413  0.61555922  0.21813063     0.35600
C2398       C  0.84185473  0.58600226  0.22070012    -0.26400
C2399       C  0.82314748  0.56182546  0.23211148    -0.15700
C2400       C  0.78924226  0.56692913  0.23926409     0.36700
N2401       N  0.76966500  0.54234100  0.25070795    -0.89900
H2402       H  0.74962345  0.60095770  0.24319841     0.17800
H2403       H  0.86807064  0.58223600  0.21585231     0.17800
N2404       N  0.84822266  0.64026498  0.20777484    -0.88900
H2405       H  0.74519801  0.54980318  0.25481460     0.35100
H2406       H  0.77942495  0.53591733  0.27189409     0.40200
H2407       H  0.83789548  0.64832793  0.18739578     0.39900
H2408       H  0.87227758  0.63242824  0.20239466     0.34800
C2409       C  0.58417452  0.77322383  0.13175200    -0.27000
C2410       C  0.56173120  0.75023362  0.13860840    -0.15000
C2411       C  0.57084130  0.72766110  0.16035634     0.35600
C2412       C  0.60304968  0.72735290  0.17264438    -0.26400
C2413       C  0.62594411  0.74988198  0.16512467    -0.15700
C2414       C  0.61603551  0.77330395  0.14471864     0.36700
N2415       N  0.63866062  0.79668272  0.13612450    -0.89900
H2416       H  0.57755236  0.79046356  0.11511106     0.17800
H2417       H  0.60983901  0.70984244  0.18895038     0.17800
N2418       N  0.54806743  0.70492880  0.17073885    -0.88900
H2419       H  0.62774250  0.81783543  0.14181940     0.35100
H2420       H  0.64182793  0.79575523  0.11233878     0.40200
H2421       H  0.52422869  0.70878739  0.16219008     0.39900
H2422       H  0.54567790  0.70747855  0.19450031     0.34800
C2423       C  0.66409111  0.60824623  0.50611560    -0.27000
C2424       C  0.68528741  0.59752005  0.48276572    -0.15000
C2425       C  0.67336393  0.57695916  0.46050876     0.35600
C2426       C  0.63985102  0.56833492  0.46138800    -0.26400
C2427       C  0.61828879  0.57958394  0.48440008    -0.15700
C2428       C  0.63074532  0.59955157  0.50710035     0.36700
N2429       N  0.60939424  0.61168557  0.53078720    -0.89900
H2430       H  0.67309634  0.62443071  0.52296049     0.17800
H2431       H  0.63077668  0.55218144  0.44456977     0.17800
N2432       N  0.69547150  0.56497104  0.43719146    -0.88900
H2433       H  0.60920811  0.63549498  0.52929611     0.35100
H2434       H  0.61967870  0.60576818  0.55191525     0.40200
H2435       H  0.68298024  0.54990180  0.42272972     0.39900
H2436       H  0.71403361  0.55216167  0.44811602     0.34800
C2437       C  0.80139825  0.55126536  0.49083765    -0.27000
C2438       C  0.80357765  0.58255919  0.49800113    -0.15000
C2439       C  0.83319119  0.59357702  0.51094523     0.35600
C2440       C  0.86024464  0.57374610  0.51505956    -0.26400
C2441       C  0.85939923  0.54312817  0.50527501    -0.15700
C2442       C  0.82929312  0.53138077  0.49413118     0.36700
N2443       N  0.82803037  0.50019718  0.48381134    -0.89900
H2444       H  0.77880728  0.54287008  0.48056532     0.17800
H2445       H  0.88332322  0.58307993  0.52345063     0.17800
N2446       N  0.83739033  0.62524949  0.51825830    -0.88900
H2447       H  0.80439719  0.49536931  0.47536576     0.35100
H2448       H  0.83162689  0.48634985  0.50292811     0.40200
H2449       H  0.81898733  0.63210289  0.53386245     0.39900
H2450       H  0.83470848  0.63812491  0.49838838     0.34800
C2451       C  0.75136379  0.69593670  0.42522271    -0.27000
C2452       C  0.76180196  0.66502669  0.42647473    -0.15000
C2453       C  0.77116861  0.65032144  0.39851484     0.35600
C2454       C  0.77199111  0.66679468  0.37116980    -0.26400
C2455       C  0.76118747  0.69730942  0.37008010    -0.15700
C2456       C  0.75090533  0.71201496  0.39747792     0.36700
N2457       N  0.73975118  0.74324978  0.39729594    -0.89900
H2458       H  0.74184505  0.70763089  0.44541486     0.17800
H2459       H  0.77926826  0.65493096  0.35021006     0.17800
N2460       N  0.77831646  0.61818355  0.39725264    -0.88900
H2461       H  0.75472404  0.75563537  0.41228234     0.35100
H2462       H  0.71538870  0.74423077  0.40577660     0.40200
H2463       H  0.80233703  0.61495465  0.38837777     0.39900
H2464       H  0.76164110  0.60809095  0.38207012     0.34800
C2465       C  0.58374820  0.46163666  0.81576106    -0.27000
C2466       C  0.58169137  0.48901275  0.79944155    -0.15000
C2467       C  0.56002047  0.51243259  0.81021198     0.35600
C2468       C  0.54250726  0.50903178  0.83791426    -0.26400
C2469       C  0.54646025  0.48263073  0.85566843    -0.15700
C2470       C  0.56659019  0.45831888  0.84378970     0.36700
N2471       N  0.57013713  0.43035363  0.86030218    -0.89900
H2472       H  0.60008049  0.44334195  0.80760132     0.17800
H2473       H  0.52708874  0.52788609  0.84627471     0.17800
N2474       N  0.55629667  0.54010777  0.79326596    -0.88900
H2475       H  0.59538459  0.42677578  0.86491304     0.35100
H2476       H  0.56229696  0.41253088  0.84612562     0.40200
H2477       H  0.56310090  0.55828884  0.80746973     0.39900
H2478       H  0.53116602  0.54297560  0.78781700     0.34800
C2479       C  0.59715841  0.48779322  0.66187064    -0.27000
C2480       C  0.58187369  0.49096405  0.69065167    -0.15000
C2481       C  0.54669554  0.49178571  0.69232381     0.35600
C2482       C  0.52776885  0.49154235  0.66486272    -0.26400
C2483       C  0.54349329  0.49061160  0.63592557    -0.15700
C2484       C  0.57849981  0.48752415  0.63479856     0.36700
N2485       N  0.59539182  0.48457986  0.60591417    -0.89900
H2486       H  0.62406236  0.48657234  0.66031468     0.17800
H2487       H  0.50092418  0.49378485  0.66602438     0.17800
N2488       N  0.53044098  0.49476767  0.72161674    -0.88900
H2489       H  0.60905207  0.46405454  0.60585786     0.35100
H2490       H  0.61215307  0.50246571  0.60413648     0.40200
H2491       H  0.53556824  0.47486826  0.73386965     0.39900
H2492       H  0.50463779  0.49589924  0.71888130     0.34800
C2493       C  0.69451861  0.39391769  0.76568255    -0.27000
C2494       C  0.68837547  0.37450912  0.74067507    -0.15000
C2495       C  0.66752841  0.38489997  0.71686967     0.35600
C2496       C  0.65375888  0.41478867  0.71830677    -0.26400
C2497       C  0.66055788  0.43442349  0.74302431    -0.15700
C2498       C  0.68078945  0.42372265  0.76714005     0.36700
N2499       N  0.68675395  0.44300895  0.79330814    -0.89900
H2500       H  0.70977861  0.38560201  0.78432908     0.17800
H2501       H  0.63790688  0.42291324  0.69999664     0.17800
N2502       N  0.65948546  0.36469380  0.69195116    -0.88900
H2503       H  0.70197902  0.43174364  0.80908886     0.35100
H2504       H  0.66391935  0.44708644  0.80429060     0.40200
H2505       H  0.68139557  0.36000786  0.67967019     0.39900
H2506       H  0.64312297  0.37547899  0.67679886     0.34800
C2507       C  0.71363868  0.29049867  0.89252040    -0.27000
C2508       C  0.73461211  0.30009726  0.86909985    -0.15000
C2509       C  0.75899198  0.32177427  0.87521670     0.35600
C2510       C  0.76296317  0.33289058  0.90505701    -0.26400
C2511       C  0.74288740  0.32258128  0.92934593    -0.15700
C2512       C  0.71750588  0.30148950  0.92249079     0.36700
N2513       N  0.69545366  0.29120106  0.94597938    -0.89900
H2514       H  0.69484061  0.27368547  0.88773926     0.17800
H2515       H  0.78195185  0.34955664  0.90832743     0.17800
N2516       N  0.77965775  0.33272405  0.85097001    -0.88900
H2517       H  0.69753496  0.26741795  0.94707220     0.35100
H2518       H  0.67111281  0.29686922  0.93958458     0.40200
H2519       H  0.80446615  0.32825483  0.85669973     0.39900
H2520       H  0.77625189  0.35640095  0.84972402     0.34800
C2521       C  0.60715591  0.22950671  0.85232393    -0.27000
C2522       C  0.60618064  0.21550390  0.82332905    -0.15000
C2523       C  0.57533788  0.20443386  0.81241473     0.35600
C2524       C  0.54665937  0.20763453  0.83105933    -0.26400
C2525       C  0.54792338  0.22209403  0.85987472    -0.15700
C2526       C  0.57870205  0.23285099  0.87054273     0.36700
N2527       N  0.58180129  0.24773202  0.89970333    -0.89900
H2528       H  0.63035138  0.23861209  0.86070318     0.17800
H2529       H  0.52318198  0.19901242  0.82288122     0.17800
N2530       N  0.57185839  0.19059999  0.78261502    -0.88900
H2531       H  0.57370438  0.23302037  0.91676071     0.35100
H2532       H  0.56654597  0.26724278  0.89980802     0.40200
H2533       H  0.59436550  0.18978166  0.77065523     0.39900
H2534       H  0.55570470  0.20448122  0.76995832     0.34800
C2535       C  0.88640855  0.28072352  0.68831325    -0.27000
C2536       C  0.86723909  0.25615630  0.67807532    -0.15000
C2537       C  0.88232137  0.23356976  0.65896660     0.35600
C2538       C  0.91582903  0.23573441  0.65079057    -0.26400
C2539       C  0.93471164  0.26061074  0.66025860    -0.15700
C2540       C  0.91992992  0.28315093  0.67945520     0.36700
N2541       N  0.93888962  0.30859694  0.68980085    -0.89900
H2542       H  0.87541644  0.29805623  0.70327685     0.17800
H2543       H  0.92642254  0.21863531  0.63539045     0.17800
N2544       N  0.86337110  0.20905211  0.64648899    -0.88900
H2545       H  0.93880106  0.30864967  0.71375502     0.35100
H2546       H  0.92686812  0.32860230  0.68258024     0.40200
H2547       H  0.87486243  0.18847798  0.65280505     0.39900
H2548       H  0.86429201  0.21039058  0.62259116     0.34800
C2549       C  0.71180970  0.19834775  0.58163546    -0.27000
C2550       C  0.73417349  0.18483884  0.60238632    -0.15000
C2551       C  0.75818006  0.16334965  0.59099385     0.35600
C2552       C  0.76024961  0.15745724  0.55949492    -0.26400
C2553       C  0.73903974  0.17244061  0.53896915    -0.15700
C2554       C  0.71358895  0.19185110  0.55036017     0.36700
N2555       N  0.68852497  0.20396570  0.53042372    -0.89900
H2556       H  0.69251949  0.21413950  0.58954884     0.17800
H2557       H  0.77861649  0.14104480  0.55108683     0.17800
N2558       N  0.78034709  0.14669143  0.61052291    -0.88900
H2559       H  0.68868473  0.22777547  0.53220057     0.35100
H2560       H  0.66540043  0.19654916  0.53815576     0.40200
H2561       H  0.76638826  0.13545556  0.62710370     0.39900
H2562       H  0.79646931  0.16194362  0.62105488     0.34800
C2563       C  0.93103522  0.97906936  0.69335885    -0.27000
C2564       C  0.90123701  0.99506601  0.70023812    -0.15000
C2565       C  0.88874327  0.01579631  0.67848928     0.35600
C2566       C  0.90535178  0.01946178  0.65029007    -0.26400
C2567       C  0.93521169  0.00348342  0.64315737    -0.15700
C2568       C  0.94843822  0.98335615  0.66556275     0.36700
N2569       N  0.97953483  0.96739178  0.66037893    -0.89900
H2570       H  0.94113394  0.96332872  0.71004195     0.17800
H2571       H  0.89474935  0.03532786  0.63399951     0.17800
N2572       N  0.85991171  0.03426621  0.68537127    -0.88900
H2573       H  0.98503544  0.95281570  0.67856430     0.35100
H2574       H  0.99822211  0.98369865  0.66018968     0.40200
H2575       H  0.84210991  0.03017702  0.66852316     0.39900
H2576       H  0.86657040  0.05719283  0.68416518     0.34800
C2577       C  0.93778140  0.00124705  0.81908326    -0.27000
C2578       C  0.90370626  0.99365706  0.81819818    -0.15000
C2579       C  0.88686847  0.99117058  0.84668979     0.35600
C2580       C  0.90410885  0.99467629  0.87444461    -0.26400
C2581       C  0.93787216  0.00209261  0.87503262    -0.15700
C2582       C  0.95496554  0.00530793  0.84685304     0.36700
N2583       N  0.98972971  0.01241621  0.84528993    -0.89900
H2584       H  0.95175334  0.00491259  0.79839062     0.17800
H2585       H  0.89075612  0.99197825  0.89586984     0.17800
N2586       N  0.85184564  0.98577175  0.84764533    -0.88900
H2587       H  0.00204974  0.99407332  0.83440102     0.35100
H2588       H  0.00022427  0.01442717  0.86700280     0.40200
H2589       H  0.84031546  0.00391644  0.85954972     0.39900
H2590       H  0.84795728  0.96581424  0.86001541     0.34800
C2591       C  0.76776509  0.07167617  0.73562729    -0.27000
C2592       C  0.78004611  0.10019557  0.74494405    -0.15000
C2593       C  0.81212819  0.10133738  0.75787538     0.35600
C2594       C  0.83142101  0.07483561  0.76040167    -0.26400
C2595       C  0.81926662  0.04605314  0.75213708    -0.15700
C2596       C  0.78700368  0.04443549  0.73942891     0.36700
N2597       N  0.77369832  0.01534796  0.73096289    -0.89900
H2598       H  0.74329216  0.07066688  0.72546091     0.17800
H2599       H  0.85624009  0.07689612  0.76964785     0.17800
N2600       N  0.82542473  0.12906822  0.76999541    -0.88900
H2601       H  0.74972467  0.01808440  0.72214397     0.35100
H2602       H  0.77146196  0.00251963  0.75092531     0.40200
H2603       H  0.80914230  0.13762058  0.78686115     0.39900
H2604       H  0.82735012  0.14500763  0.75252371     0.34800
C2605       C  0.67995412  0.56629713  0.77292463    -0.27000
C2606       C  0.67286309  0.54950277  0.74586723    -0.15000
C2607       C  0.69001309  0.55794556  0.71882307     0.35600
C2608       C  0.71024380  0.58396945  0.71862023    -0.26400
C2609       C  0.71543865  0.60161399  0.74520375    -0.15700
C2610       C  0.70062808  0.59195848  0.77279760     0.36700
N2611       N  0.70494218  0.60852351  0.80091716    -0.89900
H2612       H  0.66983016  0.55978560  0.79476735     0.17800
H2613       H  0.72144014  0.59086421  0.69718463     0.17800
N2614       N  0.68663133  0.54044385  0.69115691    -0.88900
H2615       H  0.69664823  0.63103544  0.79785506     0.35100
H2616       H  0.73030148  0.60865809  0.80602068     0.40200
H2617       H  0.67735225  0.55491350  0.67417884     0.39900
H2618       H  0.71029062  0.53275585  0.68429451     0.34800
C2619       C  0.73810273  0.69967037  0.58220535    -0.27000
C2620       C  0.75358736  0.68217535  0.60499309    -0.15000
C2621       C  0.76566954  0.65265427  0.59763560     0.35600
C2622       C  0.76253295  0.64132163  0.56749660    -0.26400
C2623       C  0.74841845  0.65920505  0.54413010    -0.15700
C2624       C  0.73524708  0.68841938  0.55197973     0.36700
N2625       N  0.71791179  0.70632612  0.52968185    -0.89900
H2626       H  0.72794451  0.72209439  0.58795086     0.17800
H2627       H  0.77217876  0.61867015  0.56217557     0.17800
N2628       N  0.78112441  0.63429585  0.62086530    -0.88900
H2629       H  0.72977236  0.72728951  0.52788756     0.35100
H2630       H  0.69373123  0.71053465  0.53776615     0.40200
H2631       H  0.80295795  0.64510793  0.62746896     0.39900
H2632       H  0.78831503  0.61294951  0.61190545     0.34800
C2633       C  0.60002560  0.76691407  0.68459594    -0.27000
C2634       C  0.62552148  0.75602105  0.66505983    -0.15000
C2635       C  0.61728121  0.74492835  0.63546768     0.35600
C2636       C  0.58382977  0.74548977  0.62628186    -0.26400
C2637       C  0.55838146  0.75586137  0.64613698    -0.15700
C2638       C  0.56670922  0.76681144  0.67548452     0.36700
N2639       N  0.54172553  0.77809343  0.69637897    -0.89900
H2640       H  0.60601018  0.77494289  0.70745396     0.17800
H2641       H  0.57775840  0.73859361  0.60309920     0.17800
N2642       N  0.64195082  0.73346966  0.61407742    -0.88900
H2643       H  0.52471396  0.76069823  0.70000530     0.35100
H2644       H  0.52916172  0.79642274  0.68619378     0.40200
H2645       H  0.66595066  0.73527128  0.62279363     0.39900
H2646       H  0.64109077  0.74735368  0.59473150     0.34800
C2647       C  0.79869260  0.89446232  0.72042135    -0.27000
C2648       C  0.78437445  0.88036472  0.74602646    -0.15000
C2649       C  0.78586908  0.89545197  0.77473863     0.35600
C2650       C  0.80316764  0.92304596  0.77762913    -0.26400
C2651       C  0.81993446  0.93599190  0.75263226    -0.15700
C2652       C  0.81665601  0.92188174  0.72353728     0.36700
N2653       N  0.83339049  0.93402263  0.69745798    -0.89900
H2654       H  0.79813930  0.88299351  0.69832503     0.17800
H2655       H  0.80459935  0.93395472  0.79995530     0.17800
N2656       N  0.77087704  0.88192578  0.80122560    -0.88900
H2657       H  0.84982090  0.91724785  0.68885296     0.35100
H2658       H  0.81560635  0.93859660  0.68065325     0.40200
H2659       H  0.74523050  0.88135752  0.79753985     0.39900
H2660       H  0.77445571  0.89551958  0.82071697     0.34800
C2661       C  0.71909419  0.82935899  0.91228049    -0.27000
C2662       C  0.74790220  0.83137209  0.93037374    -0.15000
C2663       C  0.77716363  0.81535087  0.91979019     0.35600
C2664       C  0.77751578  0.80167455  0.89056822    -0.26400
C2665       C  0.74928298  0.80212807  0.87197149    -0.15700
C2666       C  0.71956056  0.81557445  0.88346231     0.36700
N2667       N  0.68950636  0.81679378  0.86599624    -0.89900
H2668       H  0.69538943  0.83830639  0.91995666     0.17800
H2669       H  0.80004741  0.79019244  0.88248628     0.17800
N2670       N  0.80704671  0.81229025  0.93758003    -0.88900
H2671       H  0.68092778  0.79465804  0.86270609     0.35100
H2672       H  0.69452856  0.82676400  0.84484547     0.40200
H2673       H  0.80430514  0.82043307  0.95992667     0.39900
H2674       H  0.82559368  0.82490154  0.92692286     0.34800
C2675       C  0.87244122  0.73380581  0.86094413    -0.27000
C2676       C  0.87837711  0.72796029  0.82966294    -0.15000
C2677       C  0.91138978  0.73082191  0.81837921     0.35600
C2678       C  0.93714548  0.73923882  0.83858148    -0.26400
C2679       C  0.93084008  0.74600857  0.86967897    -0.15700
C2680       C  0.89805042  0.74285384  0.88082344     0.36700
N2681       N  0.89045358  0.74902099  0.91239311    -0.89900
H2682       H  0.84723689  0.73286886  0.86977649     0.17800
H2683       H  0.96210447  0.74171675  0.82957020     0.17800
N2684       N  0.91944152  0.72691800  0.78642192    -0.88900
H2685       H  0.88026354  0.72938232  0.92176597     0.35100
H2686       H  0.87232221  0.76641085  0.91338611     0.40200
H2687       H  0.89873248  0.72039959  0.77378179     0.39900
H2688       H  0.93671646  0.70888363  0.78452575     0.34800
loop_ 
_geom_bond_atom_site_label_1 
_geom_bond_atom_site_label_2 
_geom_bond_distance 
_geom_bond_site_symmetry_2 
_ccdc_geom_bond_type 
Zr1           O2   2.441       .  S
Zr1           O3   2.446       .  S
Zr1           O4   2.424       .  S
Zr1           O7   2.397       .  S
Zr1           O9   2.372       .  S
Zr1          O10   2.377       .  S
Zr1          O11   2.401       .  S
Zr1          O12   2.407       .  S
O2           H58   0.991       .  S
O2           H66   0.990       .  S
O3           C23   1.286       .  A
O4           C25   1.282       .  A
O5          Zr15   2.510       .  S
O5           C24   1.299       .  A
O6          Zr14   2.485       .  S
O6           C25   1.294       .  A
O7           C24   1.277       .  A
O8          Zr16   2.398       .  S
O8           C23   1.277       .  A
O9          Zr14   2.398       .  S
O9          Zr16   2.380       .  S
O10         Zr15   2.390       .  S
O10         Zr16   2.373       .  S
O10          H45   0.965       .  S
O11         Zr14   2.399       .  S
O11         Zr31   2.403       .  S
O11          H48   0.966       .  S
O12         Zr15   2.397       .  S
O12         Zr31   2.405       .  S
Zr13         O38   2.442       .  S
Zr13         O32   2.436       .  S
Zr13         O40   2.417       .  S
Zr13         O28   2.431       .  S
Zr13         O19   2.403       .  S
Zr13         O20   2.404       .  S
Zr13         O21   2.377       .  S
Zr13         O22   2.386       .  S
Zr14         O33   2.434       .  S
Zr14         O26   2.434       .  S
Zr14         O27   2.456       .  S
Zr14         O20   2.413       .  S
Zr14         O21   2.403       .  S
Zr15         O17   2.434       .  S
Zr15         O39   2.440       .  S
Zr15         O41   2.493       .  S
Zr15         O19   2.400       .  S
Zr15         O22   2.412       .  S
Zr16         O42   2.435       .  S
Zr16         O43   2.436       .  S
Zr16         O18   2.436       .  S
Zr16         O19   2.386       .  S
Zr16         O20   2.378       .  S
O17          H54   0.990       .  S
O18          H49   0.990       .  S
O18          H63   0.990       .  S
O20          H46   0.965       .  S
O21         Zr31   2.375       .  S
O22         Zr31   2.381       .  S
O22          H47   0.966       .  S
C23        C2665   1.476       .  S
C24        C2676   1.492       .  S
C25        C2648   1.496       .  S
O26          H62   0.990       .  S
O27          C29   1.289       .  A
O28          C29   1.282       .  A
C29        C2634   1.477       .  S
O30         Zr31   2.435       .  S
O30          H59   0.990       .  S
Zr31         O34   2.436       .  S
Zr31         O35   2.439       .  S
Zr31         O36   2.444       .  S
O32          C37   1.283       .  A
O33          H50   0.990       .  S
O33          H65   0.990       .  S
O34          H51   0.990       .  S
O35          H55   0.990       .  S
O35          H64   0.990       .  S
O36          C37   1.285       .  A
C37        C2620   1.481       .  S
O38          H57   0.990       .  S
O38          H61   0.990       .  S
O39          H53   0.990       .  S
O39          H60   0.990       .  S
O40          C44   1.282       .  A
O41          C44   1.297       .  A
O42          H52   0.990       .  S
O43          H56   0.990       .  S
C44        C2609   1.498       .  S
C67          C68   1.538       .  S
C67          C73   1.527   1_565  S
C67          C71   1.546       .  S
C67        C2578   1.551       .  S
C68          H75   1.086       .  S
C68          C69   1.375       .  D
C69          C70   1.559       .  S
C69        C2651   1.511       .  S
C70          C74   1.550   1_565  S
C70          C72   1.553       .  S
C70          H76   1.108       .  S
C71          H77   1.080       .  S
C71          C72   1.369       .  D
C72        C2564   1.504       .  S
C73          H78   1.086       .  S
C73          C74   1.367       .  D
C74        C2595   1.502       .  S
Zr79         O80   2.444       .  S
Zr79         O81   2.427       .  S
Zr79         O82   2.437       .  S
Zr79         O85   2.418       .  S
Zr79         O87   2.379       .  S
Zr79         O88   2.391       .  S
Zr79         O89   2.407       .  S
Zr79         O90   2.396       .  S
O80         H136   0.990       .  S
O80         H144   0.989       .  S
O81         C101   1.279       .  A
O82         C103   1.282       .  A
O83         Zr93   2.455       .  S
O83         C102   1.289       .  A
O84         Zr92   2.473       .  S
O84         C103   1.290       .  A
O85         C102   1.281       .  A
O86         Zr94   2.403       .  S
O86         C101   1.279       .  A
O87         Zr92   2.402       .  S
O87         Zr94   2.384       .  S
O88         Zr93   2.399       .  S
O88         Zr94   2.388       .  S
O88         H123   0.966       .  S
O89         Zr92   2.407       .  S
O89        Zr109   2.384       .  S
O89         H126   0.961       .  S
O90         Zr93   2.390       .  S
O90        Zr109   2.377       .  S
Zr91        O116   2.441       .  S
Zr91        O110   2.434       .  S
Zr91        O118   2.430       .  S
Zr91        O106   2.420       .  S
Zr91         O97   2.395       .  S
Zr91         O98   2.404       .  S
Zr91         O99   2.385       .  S
Zr91        O100   2.379       .  S
Zr92        O111   2.436       .  S
Zr92        O104   2.436       .  S
Zr92        O105   2.468       .  S
Zr92         O98   2.402       .  S
Zr92         O99   2.409       .  S
Zr93         O95   2.436       .  S
Zr93        O117   2.438       .  S
Zr93        O119   2.459       .  S
Zr93         O97   2.393       .  S
Zr93        O100   2.389       .  S
Zr94        O120   2.434       .  S
Zr94        O121   2.435       .  S
Zr94         O96   2.438       .  S
Zr94         O97   2.392       .  S
Zr94         O98   2.382       .  S
O95         H132   0.990       .  S
O96         H127   0.990       .  S
O96         H141   0.990       .  S
O98         H124   0.965       .  S
O99        Zr109   2.382       .  S
O100       Zr109   2.380       .  S
O100        H125   0.967       .  S
C101       C2550   1.484       .  S
C102       C2536   1.484       .  S
C103       C2592   1.487       .  S
O104        H140   0.990       .  S
O105        C107   1.291       .  A
O106        C107   1.282       .  A
C107       C2522   1.483       .  S
O108       Zr109   2.437       .  S
O108        H137   0.990       .  S
Zr109       O112   2.436       .  S
Zr109       O113   2.439       .  S
Zr109       O114   2.395       .  S
O110        C115   1.283       .  A
O111        H128   0.990       .  S
O111        H143   0.990       .  S
O112        H129   0.990       .  S
O113        H133   0.990       .  S
O113        H142   0.990       .  S
O114        C115   1.277       .  A
C115       C2508   1.459       .  S
O116        H135   0.990       .  S
O116        H139   0.990       .  S
O117        H131   0.990       .  S
O117        H138   0.990       .  S
O118        C122   1.283       .  A
O119        C122   1.289       .  A
O120        H130   0.990       .  S
O121        H134   0.990       .  S
C122       C2494   1.484       .  S
C145        C146   1.544       .  S
C145        C151   1.546       .  S
C145        C149   1.538       .  S
C145       C2606   1.558       .  S
C146        H153   1.082       .  S
C146        C147   1.368       .  D
C147        C148   1.545       .  S
C147       C2466   1.493       .  S
C148        C152   1.546       .  S
C148        C150   1.545       .  S
C148        H154   1.111       .  S
C149        H155   1.086       .  S
C149        C150   1.368       .  D
C150       C2497   1.491       .  S
C151        H156   1.085       .  S
C151        C152   1.372       .  D
C152       C2480   1.499       .  S
C157        C158   1.525       .  S
C157        C163   1.536       .  S
C157        C161   1.551       .  S
C157       C2452   1.537       .  S
C158        H165   1.087       .  S
C158        C159   1.358       .  D
C159        C160   1.540       .  S
C159       C2424   1.475       .  S
C160        C164   1.542       .  S
C160        C162   1.545       .  S
C160        H166   1.110       .  S
C161        H167   1.083       .  S
C161        C162   1.375       .  D
C162       C2623   1.502       .  S
C163        H168   1.086       .  S
C163        C164   1.365       .  D
C164       C2438   1.484       .  S
Zr169       O170   2.442       .  S
Zr169       O171   2.455       .  S
Zr169       O172   2.423       .  S
Zr169       O175   2.402       .  S
Zr169       O177   2.377       .  S
Zr169       O178   2.377       .  S
Zr169       O179   2.410       .  S
Zr169       O180   2.408       .  S
O170        H226   0.990       .  S
O170        H234   0.990       .  S
O171        C191   1.287       .  A
O172        C193   1.282       .  A
O173       Zr183   2.463       .  S
O173        C192   1.291       .  A
O174       Zr182   2.513       .  S
O174        C193   1.299       .  A
O175        C192   1.277       .  A
O176       Zr184   2.397       .  S
O176        C191   1.275       .  A
O177       Zr182   2.411       .  S
O177       Zr184   2.391       .  S
O178       Zr183   2.398       .  S
O178       Zr184   2.379       .  S
O178        H213   0.966       .  S
O179       Zr182   2.405       .  S
O179       Zr199   2.390       .  S
O179        H216   0.963       .  S
O180       Zr183   2.392       .  S
O180       Zr199   2.401       .  S
Zr181       O206   2.443       .  S
Zr181       O200   2.427       .  S
Zr181       O208   2.439       .  S
Zr181       O196   2.404       .  S
Zr181       O187   2.393       .  S
Zr181       O188   2.407       .  S
Zr181       O189   2.383       .  S
Zr181       O190   2.379       .  S
Zr182       O201   2.436       .  S
Zr182       O194   2.434       .  S
Zr182       O195   2.491       .  S
Zr182       O188   2.416       .  S
Zr182       O189   2.405       .  S
Zr183       O185   2.435       .  S
Zr183       O207   2.437       .  S
Zr183       O209   2.452       .  S
Zr183       O187   2.407       .  S
Zr183       O190   2.403       .  S
Zr184       O210   2.437       .  S
Zr184       O211   2.437       .  S
Zr184       O186   2.438       .  S
Zr184       O187   2.392       .  S
Zr184       O188   2.381       .  S
O185        H222   0.990       .  S
O186        H217   0.990       .  S
O186        H231   0.990       .  S
O188        H214   0.964       .  S
O189       Zr199   2.371       .  S
O190       Zr199   2.378       .  S
O190        H215   0.967       .  S
C191       C2354   1.492       .  S
C192       C2413   1.489       .  S
C193       C2371   1.510       .  S
O194        H230   0.990       .  S
O195        C197   1.296       .  A
O196        C197   1.279       .  A
C197       C2382   1.485       .  S
O198       Zr199   2.434       .  S
O198        H227   0.990       .  S
Zr199       O202   2.436       .  S
Zr199       O203   2.438       .  S
Zr199       O204   2.428       .  S
O200        C205   1.282       .  A
O201        H218   0.990       .  S
O201        H233   0.990       .  S
O202        H219   0.990       .  S
O203        H223   0.990       .  S
O203        H232   0.990       .  S
O204        C205   1.281       .  A
C205       C2455   1.484       .  S
O206        H225   0.991       .  S
O206        H229   0.990       .  S
O207        H221   0.990       .  S
O207        H228   0.990       .  S
O208        C212   1.284       .  A
O209        C212   1.286       .  A
O210        H220   0.990       .  S
O211        H224   0.990       .  S
C212       C2396   1.485       .  S
C235        C236   1.527       .  S
C235        C241   1.546       .  S
C235        C239   1.542       .  S
C235       C2662   1.537       .  S
C236        H243   1.086       .  S
C236        C237   1.359       .  D
C237        C238   1.534   1_556  S
C237       C2340   1.469       .  S
C238        C242   1.525   1_554  S
C238        C240   1.534       .  S
C238        H244   1.110       .  S
C239        H245   1.086       .  S
C239        C240   1.373   1_556  D
C240       C2357   1.487       .  S
C241        H246   1.080       .  S
C241        C242   1.361       .  D
C242       C2329   1.467       .  S
C247        C248   1.549       .  S
C247        C253   1.529       .  S
C247        C251   1.533       .  S
C247       C2298   1.535       .  S
C248        H255   1.080       .  S
C248        C249   1.367       .  D
C249        C250   1.537       .  S
C249       C2284   1.482       .  S
C250        C254   1.545       .  S
C250        C252   1.542       .  S
C250        H256   1.111       .  S
C251        H257   1.085       .  S
C251        C252   1.362       .  D
C252       C2312   1.474       .  S
C253        H258   1.087       .  S
C253        C254   1.359       .  D
C254       C2410   1.484       .  S
C259        C260   1.534       .  S
C259        C265   1.548       .  S
C259        C263   1.524       .  S
C259       C2228   1.536       .  S
C260        H267   1.085       .  S
C260        C261   1.361       .  D
C261        C262   1.562   1_565  S
C261       C2259   1.500       .  S
C262        C266   1.557   1_545  S
C262        C264   1.550       .  S
C262        H268   1.110       .  S
C263        H269   1.087       .  S
C263        C264   1.358   1_565  D
C264       C2245   1.485       .  S
C265        H270   1.084       .  S
C265        C266   1.375       .  D
C266       C2270   1.512       .  S
C271        C272   1.540       .  S
C271        C277   1.530       .  S
C271        C275   1.537       .  S
C271       C2511   1.527       .  S
C272        H279   1.080       .  S
C272        C273   1.362       .  D
C273        C274   1.540   1_556  S
C273       C2200   1.481   1_556  S
C274        C278   1.535       .  S
C274        C276   1.546       .  S
C274        H280   1.111       .  S
C275        H281   1.086       .  S
C275        C276   1.363   1_556  D
C276       C2186   1.476       .  S
C277        H282   1.087       .  S
C277        C278   1.361   1_556  D
C278       C2214   1.474       .  S
C283        C284   1.536       .  S
C283        C289   1.537       .  S
C283        C287   1.549   1_554  S
C283       C2172   1.538       .  S
C284        H291   1.087       .  S
C284        C285   1.366   1_554  D
C285        C286   1.535       .  S
C285       C2161   1.481       .  S
C286        C290   1.533       .  S
C286        C288   1.528       .  S
C286        H292   1.111       .  S
C287        H293   1.081       .  S
C287        C288   1.366       .  D
C288       C2133   1.469       .  S
C289        H294   1.086       .  S
C289        C290   1.363   1_554  D
C290       C2144   1.471       .  S
C295        C296   1.536       .  S
C295        C301   1.530       .  S
C295        C299   1.546       .  S
C295       C2074   1.540       .  S
C296        H303   1.086       .  S
C296        C297   1.364       .  D
C297        C298   1.558       .  S
C297       C2116   1.507       .  S
C298        C302   1.558       .  S
C298        C300   1.548       .  S
C298        H304   1.110       .  S
C299        H305   1.080       .  S
C299        C300   1.369       .  D
C300       C2091   1.487       .  S
C301        H306   1.087       .  S
C301        C302   1.359       .  D
C302       C2105   1.502       .  S
C307        C308   1.562       .  S
C307        C313   1.538       .  S
C307        C311   1.535       .  S
C307       C2035   1.545       .  S
C308        H315   1.081       .  S
C308        C309   1.376       .  D
C309        C310   1.539       .  S
C309       C2060   1.506       .  S
C310        C314   1.543       .  S
C310        C312   1.526       .  S
C310        H316   1.110       .  S
C311        H317   1.086       .  S
C311        C312   1.365       .  D
C312       C2553   1.473       .  S
C313        H318   1.086       .  S
C313        C314   1.361       .  D
C314       C2049   1.484       .  S
C319        C320   1.528   1_455  S
C319        C325   1.541       .  S
C319        C323   1.546       .  S
C319       C2018   1.544       .  S
C320        H327   1.087       .  S
C320        C321   1.361       .  D
C321        C322   1.556   1_655  S
C321       C2385   1.508       .  S
C322        C326   1.536       .  S
C322        C324   1.548       .  S
C322        H328   1.107   1_455  S
C323        H329   1.084       .  S
C323        C324   1.376       .  D
C324       C2004   1.499       .  S
C325        H330   1.081       .  S
C325        C326   1.359       .  D
C326       C1990   1.475       .  S
Zr331       O332   2.444       .  S
Zr331       O333   2.453       .  S
Zr331       O334   2.448       .  S
Zr331       O337   2.406       .  S
Zr331       O339   2.375       .  S
Zr331       O340   2.390       .  S
Zr331       O341   2.408       .  S
Zr331       O342   2.408       .  S
O332        H388   0.990       .  S
O332        H396   0.991       .  S
O333        C353   1.286       .  A
O334        C355   1.285       .  A
O335       Zr345   2.470       .  S
O335        C354   1.291       .  A
O336       Zr344   2.479       .  S
O336        C355   1.291       .  A
O337        C354   1.280       .  A
O338       Zr346   2.410       .  S
O338        C353   1.278       .  A
O339       Zr344   2.404       .  S
O339       Zr346   2.390       .  S
O340       Zr345   2.415       .  S
O340       Zr346   2.378       .  S
O340        H375   0.964       .  S
O341       Zr344   2.403       .  S
O341       Zr361   2.383       .  S
O341        H378   0.964       .  S
O342       Zr345   2.401       .  S
O342       Zr361   2.387       .  S
Zr343       O368   2.443       .  S
Zr343       O362   2.425       .  S
Zr343       O370   2.442       .  S
Zr343       O358   2.418       .  S
Zr343       O349   2.393       .  S
Zr343       O350   2.409       .  S
Zr343       O351   2.381       .  S
Zr343       O352   2.376       .  S
Zr344       O363   2.437       .  S
Zr344       O356   2.435       .  S
Zr344       O357   2.452       .  S
Zr344       O350   2.419       .  S
Zr344       O351   2.408       .  S
Zr345       O347   2.435       .  S
Zr345       O369   2.437       .  S
Zr345       O371   2.493       .  S
Zr345       O349   2.398       .  S
Zr345       O352   2.401       .  S
Zr346       O372   2.434       .  S
Zr346       O373   2.435       .  S
Zr346       O348   2.437       .  S
Zr346       O349   2.394       .  S
Zr346       O350   2.391       .  S
O347        H384   0.990       .  S
O348        H379   0.990       .  S
O348        H393   0.990       .  S
O350        H376   0.965       .  S
O351       Zr361   2.377       .  S
O352       Zr361   2.383       .  S
O352        H377   0.967       .  S
C353       C2175   1.478       .  S
C354       C2287   1.488       .  S
C355       C1962   1.497       .  S
O356        H392   0.990       .  S
O357        C359   1.287       .  A
O358        C359   1.282       .  A
C359       C1993   1.483       .  S
O360       Zr361   2.436       .  S
O360        H389   0.991       .  S
Zr361       O364   2.436       .  S
Zr361       O365   2.437       .  S
Zr361       O366   2.411       .  S
O362        C367   1.281       .  A
O363        H380   0.990       .  S
O363        H395   0.990       .  S
O364        H381   0.990       .  S
O365        H385   0.990       .  S
O365        H394   0.990       .  S
O366        C367   1.278       .  A
C367       C1948   1.472       .  S
O368        H387   0.990       .  S
O368        H391   0.991       .  S
O369        H383   0.990       .  S
O369        H390   0.990       .  S
O370        C374   1.287       .  A
O371        C374   1.295       .  A
O372        H382   0.990       .  S
O373        H386   0.990       .  S
C374       C1976   1.516       .  S
C397        C398   1.524       .  S
C397        C403   1.528       .  S
C397        C401   1.558       .  S
C397       C1951   1.535       .  S
C398        H405   1.088       .  S
C398        C399   1.355       .  D
C399        C400   1.550       .  S
C399       C1934   1.490       .  S
C400        C404   1.544       .  S
C400        C402   1.541       .  S
C400        H406   1.109       .  S
C401        H407   1.082       .  S
C401        C402   1.377       .  D
C402       C1906   1.497       .  S
C403        H408   1.085       .  S
C403        C404   1.362       .  D
C404       C1923   1.485       .  S
C409        C410   1.524       .  S
C409        C415   1.542       .  S
C409        C413   1.545       .  S
C409       C1864   1.546       .  S
C410        H417   1.087       .  S
C410        C411   1.363       .  D
C411        C412   1.564       .  S
C411       C1892   1.507       .  S
C412        C416   1.546       .  S
C412        C414   1.550       .  S
C412        H418   1.110       .  S
C413        H419   1.086       .  S
C413        C414   1.375       .  D
C414       C1878   1.501       .  S
C415        H420   1.082       .  S
C415        C416   1.363       .  D
C416       C2399   1.489       .  S
Zr421       O422   2.442       .  S
Zr421       O423   2.409       .  S
Zr421       O424   2.450       .  S
Zr421       O427   2.402       .  S
Zr421       O429   2.382       .  S
Zr421       O430   2.392       .  S
Zr421       O431   2.392       .  S
Zr421       O432   2.400       .  S
O422        H478   0.991       .  S
O422        H486   0.990       .  S
O423        C443   1.278       .  A
O424        C445   1.287       .  A
O425       Zr435   2.458       .  S
O425        C444   1.290       .  A
O426       Zr434   2.467       .  S
O426        C445   1.292       .  A
O427        C444   1.280       .  A
O428       Zr436   2.432       .  S
O428        C443   1.285       .  A
O429       Zr434   2.406       .  S
O429       Zr436   2.382       .  S
O430       Zr435   2.408       .  S
O430       Zr436   2.370       .  S
O430        H465   0.966       .  S
O431       Zr434   2.409       .  S
O431       Zr451   2.384       .  S
O431        H468   0.965       .  S
O432       Zr435   2.410       .  S
O432       Zr451   2.377       .  S
Zr433       O458   2.446       .  S
Zr433       O452   2.427       .  S
Zr433       O460   2.407       .  S
Zr433       O448   2.381       .  S
Zr433       O439   2.391       .  S
Zr433       O440   2.401       .  S
Zr433       O441   2.374       .  S
Zr433       O442   2.372       .  S
Zr434       O453   2.436       .  S
Zr434       O446   2.434       .  S
Zr434       O447   2.492       .  S
Zr434       O440   2.397       .  S
Zr434       O441   2.385       .  S
Zr435       O437   2.437       .  S
Zr435       O459   2.435       .  S
Zr435       O461   2.510       .  S
Zr435       O439   2.388       .  S
Zr435       O442   2.384       .  S
Zr436       O462   2.436       .  S
Zr436       O463   2.437       .  S
Zr436       O438   2.436       .  S
Zr436       O439   2.401       .  S
Zr436       O440   2.395       .  S
O437        H474   0.990       .  S
O438        H469   0.990       .  S
O438        H483   0.990       .  S
O440        H466   0.966       .  S
O441       Zr451   2.377       .  S
O442       Zr451   2.387       .  S
O442        H467   0.966       .  S
C443       C1850   1.489       .  S
C444       C2189   1.476       .  S
C445       C1895   1.513       .  S
O446        H482   0.990       .  S
O447        C449   1.295       .  A
O448        C449   1.274       .  A
C449       C2032   1.488       .  S
O450       Zr451   2.436       .  S
O450        H479   0.990       .  S
Zr451       O454   2.434       .  S
Zr451       O455   2.439       .  S
Zr451       O456   2.391       .  S
O452        C457   1.284       .  A
O453        H470   0.990       .  S
O453        H485   0.990       .  S
O454        H471   0.990       .  S
O455        H475   0.990       .  S
O455        H484   0.990       .  S
O456        C457   1.276       .  A
C457       C1836   1.459       .  S
O458        H477   0.990       .  S
O458        H481   0.990       .  S
O459        H473   0.990       .  S
O459        H480   0.990       .  S
O460        C464   1.281       .  A
O461        C464   1.299       .  A
O462        H472   0.990       .  S
O463        H476   0.990       .  S
C464       C1822   1.508       .  S
C487        C488   1.543       .  S
C487        C493   1.540   1_545  S
C487        C491   1.557       .  S
C487       C1797   1.573       .  S
C488        H495   1.085       .  S
C488        C489   1.371       .  D
C489        C490   1.544       .  S
C489       C1825   1.503       .  S
C490        C494   1.552   1_545  S
C490        C492   1.545       .  S
C490        H496   1.109       .  S
C491        H497   1.081       .  S
C491        C492   1.377       .  D
C492       C1811   1.504       .  S
C493        H498   1.086       .  S
C493        C494   1.368       .  D
C494       C2368   1.508       .  S
C499        C500   1.537       .  S
C499        C505   1.555       .  S
C499        C503   1.531       .  S
C499       C1766   1.545       .  S
C500        H507   1.085       .  S
C500        C501   1.362       .  D
C501        C502   1.544       .  S
C501       C2525   1.486       .  S
C502        C506   1.542       .  S
C502        C504   1.537       .  S
C502        H508   1.110       .  S
C503        H509   1.086       .  S
C503        C504   1.363       .  D
C504       C1752   1.478       .  S
C505        H510   1.081       .  S
C505        C506   1.373       .  D
C506       C1780   1.500       .  S
Zr511       O512   2.441       .  S
Zr511       O513   2.396       .  S
Zr511       O514   2.415       .  S
Zr511       O517   2.398       .  S
Zr511       O519   2.379       .  S
Zr511       O520   2.384       .  S
Zr511       O521   2.386       .  S
Zr511       O522   2.386       .  S
O512        H568   0.990       .  S
O512        H576   0.990       .  S
O513        C533   1.277       .  A
O514        C535   1.281       .  A
O515       Zr525   2.487       .  S
O515        C534   1.295       .  A
O516       Zr524   2.452       .  S
O516        C535   1.290       .  A
O517        C534   1.278       .  A
O518       Zr526   2.435       .  S
O518        C533   1.284       .  A
O519       Zr524   2.400       .  S
O519       Zr526   2.372       .  S
O520       Zr525   2.397       .  S
O520       Zr526   2.374       .  S
O520        H555   0.966       .  S
O521       Zr524   2.414       .  S
O521       Zr541   2.381       .  S
O521        H558   0.966       .  S
O522       Zr525   2.398       .  S
O522       Zr541   2.375       .  S
Zr523       O548   2.442       .  S
Zr523       O542   2.433       .  S
Zr523       O550   2.379       .  S
Zr523       O538   2.399       .  S
Zr523       O529   2.398       .  S
Zr523       O530   2.395       .  S
Zr523       O531   2.366       .  S
Zr523       O532   2.385       .  S
Zr524       O543   2.436       .  S
Zr524       O536   2.434       .  S
Zr524       O537   2.487       .  S
Zr524       O530   2.397       .  S
Zr524       O531   2.381       .  S
Zr525       O527   2.436       .  S
Zr525       O549   2.437       .  S
Zr525       O551   2.487       .  S
Zr525       O529   2.399       .  S
Zr525       O532   2.399       .  S
Zr526       O552   2.435       .  S
Zr526       O553   2.436       .  S
Zr526       O528   2.437       .  S
Zr526       O529   2.397       .  S
Zr526       O530   2.403       .  S
O527        H564   0.990       .  S
O528        H559   0.990       .  S
O528        H573   0.990       .  S
O530        H556   0.967       .  S
O531       Zr541   2.378       .  S
O532       Zr541   2.384       .  S
O532        H557   0.966       .  S
C533       C1724   1.462       .  S
C534       C1713   1.482       .  S
C535       C2088   1.492       .  S
O536        H572   0.990       .  S
O537        C539   1.293       .  A
O538        C539   1.276       .  A
C539       C1783   1.483       .  S
O540       Zr541   2.435       .  S
O540        H569   0.990       .  S
Zr541       O544   2.435       .  S
Zr541       O545   2.441       .  S
Zr541       O546   2.376       .  S
O542        C547   1.283       .  A
O543        H560   0.990       .  S
O543        H575   0.990       .  S
O544        H561   0.990       .  S
O545        H565   0.990       .  S
O545        H574   0.990       .  S
O546        C547   1.275       .  A
C547       C1738   1.478       .  S
O548        H567   0.991       .  S
O548        H571   0.991       .  S
O549        H563   0.990       .  S
O549        H570   0.990       .  S
O550        C554   1.275       .  A
O551        C554   1.295       .  A
O552        H562   0.990       .  S
O553        H566   0.990       .  S
C554       C2242   1.492       .  S
C577        C578   1.548   1_655  S
C577        C583   1.535       .  S
C577        C581   1.545       .  S
C577       C1682   1.543       .  S
C578        H585   1.081       .  S
C578        C579   1.369       .  D
C579        C580   1.539   1_455  S
C579       C1710   1.501       .  S
C580        C584   1.543       .  S
C580        C582   1.532       .  S
C580        H586   1.111       .  S
C581        H587   1.086       .  S
C581        C582   1.369       .  D
C582       C1699   1.482       .  S
C583        H588   1.086       .  S
C583        C584   1.361       .  D
C584       C2539   1.483       .  S
C589        C590   1.539   1_455  S
C589        C595   1.541       .  S
C589        C593   1.511       .  S
C589       C1671   1.518       .  S
C590        H597   1.084       .  S
C590        C591   1.366       .  D
C591        C592   1.535       .  S
C591       C1853   1.474       .  S
C592        C596   1.548   1_655  S
C592        C594   1.551   1_655  S
C592        H598   1.110       .  S
C593        H599   1.088       .  S
C593        C594   1.355       .  D
C594       C1643   1.476       .  S
C595        H600   1.083       .  S
C595        C596   1.367       .  D
C596       C1654   1.499       .  S
Zr601       O602   2.442       .  S
Zr601       O603   2.429       .  S
Zr601       O604   2.432       .  S
Zr601       O607   2.398       .  S
Zr601       O609   2.377   1_545  S
Zr601       O610   2.384   1_554  S
Zr601       O611   2.399       .  S
Zr601       O612   2.400   1_455  S
O602        H658   0.990       .  S
O602        H666   0.990       .  S
O603        C623   1.282       .  A
O604        C625   1.284   1_545  A
O605       Zr615   2.427       .  S
O605        C624   1.283   1_656  A
O606       Zr614   2.483       .  S
O606        C625   1.294       .  A
O607        C624   1.280       .  A
O608       Zr616   2.444   1_545  S
O608        C623   1.285   1_556  A
O609       Zr614   2.407       .  S
O609       Zr616   2.380   1_554  S
O610       Zr615   2.394   1_455  S
O610       Zr616   2.369   1_545  S
O610        H645   0.965       .  S
O611       Zr614   2.409   1_545  S
O611       Zr631   2.391   1_455  S
O611        H648   0.967   1_455  S
O612       Zr615   2.406   1_554  S
O612       Zr631   2.381       .  S
Zr613       O638   2.440       .  S
Zr613       O632   2.418       .  S
Zr613       O640   2.412       .  S
Zr613       O628   2.366       .  S
Zr613       O619   2.384   1_665  S
Zr613       O620   2.407   1_655  S
Zr613       O621   2.379   1_556  S
Zr613       O622   2.363   1_565  S
Zr614       O633   2.437   1_455  S
Zr614       O626   2.434       .  S
Zr614       O627   2.489       .  S
Zr614       O620   2.406   1_554  S
Zr614       O621   2.396   1_455  S
Zr615       O617   2.435       .  S
Zr615       O639   2.438   1_655  S
Zr615       O641   2.475       .  S
Zr615       O619   2.385   1_655  S
Zr615       O622   2.375       .  S
Zr616       O642   2.435   1_565  S
Zr616       O643   2.434       .  S
Zr616       O618   2.437       .  S
Zr616       O619   2.407   1_565  S
Zr616       O620   2.405       .  S
O617        H654   0.990       .  S
O618        H649   0.990   1_556  S
O618        H663   0.989   1_556  S
O620        H646   0.967       .  S
O621       Zr631   2.376   1_565  S
O622       Zr631   2.383   1_556  S
O622        H647   0.966       .  S
C623       C1615   1.474       .  S
C624       C1668   1.455       .  S
C625       C1626   1.503   1_565  S
O626        H662   0.990       .  S
O627        C629   1.294   1_455  A
O628        C629   1.272   1_556  A
C629       C1601   1.479   1_554  S
O630       Zr631   2.439       .  S
O630        H659   0.990       .  S
Zr631       O634   2.436   1_545  S
Zr631       O635   2.443       .  S
Zr631       O636   2.401   1_545  S
O632        C637   1.281       .  A
O633        H650   0.990   1_655  S
O633        H665   0.990       .  S
O634        H651   0.990       .  S
O635        H655   0.990       .  S
O635        H664   0.990       .  S
O636        C637   1.277   1_554  A
C637       C2343   1.459       .  S
O638        H657   0.990   1_655  S
O638        H661   0.991       .  S
O639        H653   0.990       .  S
O639        H660   0.990       .  S
O640        C644   1.280   1_565  A
O641        C644   1.292       .  A
O642        H652   0.990       .  S
O643        H656   0.990       .  S
C644       C2581   1.487       .  S
Zr667       O668   2.444       .  S
Zr667       O669   2.432       .  S
Zr667       O670   2.433       .  S
Zr667       O673   2.380       .  S
Zr667       O675   2.374       .  S
Zr667       O676   2.385       .  S
Zr667       O677   2.396       .  S
Zr667       O678   2.405       .  S
O668        H724   0.990       .  S
O668        H732   0.990       .  S
O669        C689   1.283       .  A
O670        C691   1.282       .  A
O671       Zr681   2.468       .  S
O671        C690   1.291       .  A
O672       Zr680   2.504       .  S
O672        C691   1.298       .  A
O673        C690   1.275       .  A
O674       Zr682   2.422       .  S
O674        C689   1.281       .  A
O675       Zr680   2.410       .  S
O675       Zr682   2.393       .  S
O676       Zr681   2.401       .  S
O676       Zr682   2.371       .  S
O676        H711   0.965       .  S
O677       Zr680   2.403       .  S
O677       Zr697   2.391       .  S
O677        H714   0.965       .  S
O678       Zr681   2.403       .  S
O678       Zr697   2.382       .  S
Zr679       O704   2.447       .  S
Zr679       O698   2.421       .  S
Zr679       O706   2.415       .  S
Zr679       O694   2.399       .  S
Zr679       O685   2.394       .  S
Zr679       O686   2.402       .  S
Zr679       O687   2.384       .  S
Zr679       O688   2.376       .  S
Zr680       O699   2.435       .  S
Zr680       O692   2.434       .  S
Zr680       O693   2.496       .  S
Zr680       O686   2.409       .  S
Zr680       O687   2.403       .  S
Zr681       O683   2.436       .  S
Zr681       O705   2.437       .  S
Zr681       O707   2.490       .  S
Zr681       O685   2.393       .  S
Zr681       O688   2.389       .  S
Zr682       O708   2.436       .  S
Zr682       O709   2.435       .  S
Zr682       O684   2.436       .  S
Zr682       O685   2.398       .  S
Zr682       O686   2.391       .  S
O683        H720   0.990       .  S
O684        H715   0.990       .  S
O684        H729   0.990       .  S
O686        H712   0.965       .  S
O687       Zr697   2.382       .  S
O688       Zr697   2.375       .  S
O688        H713   0.966       .  S
C689       C1657   1.482       .  S
C690       C1587   1.478       .  S
C691       C1570   1.519       .  S
O692        H728   0.990       .  S
O693        C695   1.297       .  A
O694        C695   1.278       .  A
C695       C1542   1.489       .  S
O696       Zr697   2.440       .  S
O696        H725   0.990       .  S
Zr697       O700   2.438       .  S
Zr697       O701   2.442       .  S
Zr697       O702   2.405       .  S
O698        C703   1.282       .  A
O699        H716   0.990       .  S
O699        H731   0.990       .  S
O700        H717   0.990       .  S
O701        H721   0.990       .  S
O701        H730   0.990       .  S
O702        C703   1.279       .  A
C703       C1556   1.475       .  S
O704        H723   0.990       .  S
O704        H727   0.990       .  S
O705        H719   0.990       .  S
O705        H726   0.990       .  S
O706        C710   1.280       .  A
O707        C710   1.296       .  A
O708        H718   0.990       .  S
O709        H722   0.990       .  S
C710       C1528   1.511       .  S
C733        C734   1.529       .  S
C733        C739   1.540   1_545  S
C733        C737   1.552       .  S
C733       C1514   1.556       .  S
C734        H741   1.087       .  S
C734        C735   1.362       .  D
C735        C736   1.570       .  S
C735       C1573   1.512       .  S
C736        C740   1.561   1_545  S
C736        C738   1.550       .  S
C736        H742   1.110       .  S
C737        H743   1.082       .  S
C737        C738   1.375       .  D
C738       C1629   1.504       .  S
C739        H744   1.086       .  S
C739        C740   1.371       .  D
C740       C1979   1.518       .  S
Zr745       O746   2.443       .  S
Zr745       O747   2.448       .  S
Zr745       O748   2.464       .  S
Zr745       O751   2.415       .  S
Zr745       O753   2.379       .  S
Zr745       O754   2.392       .  S
Zr745       O755   2.406   1_545  S
Zr745       O756   2.415       .  S
O746        H802   0.991       .  S
O746        H810   0.990       .  S
O747        C767   1.284       .  A
O748        C769   1.289       .  A
O749       Zr759   2.459       .  S
O749        C768   1.289       .  A
O750       Zr758   2.446   1_655  S
O750        C769   1.286   1_565  A
O751        C768   1.282       .  A
O752       Zr760   2.406       .  S
O752        C767   1.279   1_455  A
O753       Zr758   2.403   1_645  S
O753       Zr760   2.383   1_655  S
O754       Zr759   2.409       .  S
O754       Zr760   2.376   1_655  S
O754        H789   0.967       .  S
O755       Zr758   2.410   1_655  S
O755       Zr775   2.390       .  S
O755        H792   0.965       .  S
O756       Zr759   2.405       .  S
O756       Zr775   2.397   1_545  S
Zr757       O782   2.444       .  S
Zr757       O776   2.435       .  S
Zr757       O784   2.420       .  S
Zr757       O772   2.405       .  S
Zr757       O763   2.394   1_565  S
Zr757       O764   2.402   1_565  S
Zr757       O765   2.373       .  S
Zr757       O766   2.378   1_455  S
Zr758       O777   2.436       .  S
Zr758       O770   2.436   1_565  S
Zr758       O771   2.455       .  S
Zr758       O764   2.403   1_565  S
Zr758       O765   2.396       .  S
Zr759       O761   2.435       .  S
Zr759       O783   2.437       .  S
Zr759       O785   2.488       .  S
Zr759       O763   2.390   1_655  S
Zr759       O766   2.399   1_545  S
Zr760       O786   2.435       .  S
Zr760       O787   2.436       .  S
Zr760       O762   2.437       .  S
Zr760       O763   2.392       .  S
Zr760       O764   2.377       .  S
O761        H798   0.990       .  S
O762        H793   0.990       .  S
O762        H807   0.990       .  S
O764        H790   0.964       .  S
O765       Zr775   2.376   1_455  S
O766       Zr775   2.387       .  S
O766        H791   0.965       .  S
C767       C1696   1.473       .  S
C768       C2046   1.483       .  S
C769       C2567   1.510       .  S
O770        H806   0.990       .  S
O771        C773   1.287       .  A
O772        C773   1.277       .  A
C773       C1920   1.465       .  S
O774       Zr775   2.436       .  S
O774        H803   0.990       .  S
Zr775       O778   2.436       .  S
Zr775       O779   2.440       .  S
Zr775       O780   2.417       .  S
O776        C781   1.284       .  A
O777        H794   0.990       .  S
O777        H809   0.990   1_455  S
O778        H795   0.990       .  S
O779        H799   0.990       .  S
O779        H808   0.989       .  S
O780        C781   1.280   1_655  A
C781       C2021   1.493       .  S
O782        H801   0.991       .  S
O782        H805   0.991       .  S
O783        H797   0.990       .  S
O783        H804   0.990       .  S
O784        C788   1.283   1_565  A
O785        C788   1.294   1_655  A
O786        H796   0.990       .  S
O787        H800   0.990       .  S
C788       C1517   1.507       .  S
C811        C812   1.542       .  S
C811        C817   1.535       .  S
C811        C815   1.523   1_556  S
C811       C1741   1.526       .  S
C812        H819   1.086       .  S
C812        C813   1.370   1_556  D
C813        C814   1.542       .  S
C813       C1612   1.505       .  S
C814        C818   1.535       .  S
C814        C816   1.545       .  S
C814        H820   1.107       .  S
C815        H821   1.085       .  S
C815        C816   1.354       .  D
C816       C1584   1.474       .  S
C817        H822   1.081       .  S
C817        C818   1.366   1_556  D
C818       C1500   1.466       .  S
Zr823       O824   2.443       .  S
Zr823       O825   2.428   1_556  S
Zr823       O826   2.444       .  S
Zr823       O829   2.390       .  S
Zr823       O831   2.370   1_546  S
Zr823       O832   2.386   1_556  S
Zr823       O833   2.397       .  S
Zr823       O834   2.402   1_556  S
O824        H880   0.990       .  S
O824        H888   0.991       .  S
O825        C845   1.283       .  A
O826        C847   1.283   1_545  A
O827       Zr837   2.471       .  S
O827        C846   1.292       .  A
O828       Zr836   2.476       .  S
O828        C847   1.293       .  A
O829        C846   1.276   1_556  A
O830       Zr838   2.393   1_545  S
O830        C845   1.275       .  A
O831       Zr836   2.402   1_554  S
O831       Zr838   2.398       .  S
O832       Zr837   2.398       .  S
O832       Zr838   2.383   1_545  S
O832        H867   0.965       .  S
O833       Zr836   2.398   1_545  S
O833       Zr853   2.392       .  S
O833        H870   0.964       .  S
O834       Zr837   2.393       .  S
O834       Zr853   2.381   1_554  S
Zr835       O860   2.442       .  S
Zr835       O854   2.416       .  S
Zr835       O862   2.424       .  S
Zr835       O850   2.424       .  S
Zr835       O841   2.390   1_565  S
Zr835       O842   2.401       .  S
Zr835       O843   2.380   1_554  S
Zr835       O844   2.382   1_565  S
Zr836       O855   2.436       .  S
Zr836       O848   2.435       .  S
Zr836       O849   2.447   1_556  S
Zr836       O842   2.414   1_556  S
Zr836       O843   2.406       .  S
Zr837       O839   2.436       .  S
Zr837       O861   2.438       .  S
Zr837       O863   2.472       .  S
Zr837       O841   2.393       .  S
Zr837       O844   2.398       .  S
Zr838       O864   2.437   1_565  S
Zr838       O865   2.436       .  S
Zr838       O840   2.437       .  S
Zr838       O841   2.386   1_565  S
Zr838       O842   2.379       .  S
O839        H876   0.990       .  S
O840        H871   0.990       .  S
O840        H885   0.990       .  S
O842        H868   0.965       .  S
O843       Zr853   2.382   1_565  S
O844       Zr853   2.376   1_554  S
O844        H869   0.966       .  S
C845       C1503   1.458       .  S
C846       C1769   1.479   1_554  S
C847       C2256   1.509       .  S
O848        H884   0.990       .  S
O849        C851   1.287       .  A
O850        C851   1.281       .  A
C851       C2315   1.475       .  S
O852       Zr853   2.438       .  S
O852        H881   0.990       .  S
Zr853       O856   2.435   1_545  S
Zr853       O857   2.439       .  S
Zr853       O858   2.412   1_545  S
O854        C859   1.281       .  A
O855        H872   0.990       .  S
O855        H887   0.990       .  S
O856        H873   0.990       .  S
O857        H877   0.990   1_556  S
O857        H886   0.990   1_556  S
O858        C859   1.279   1_556  A
C859       C2326   1.467       .  S
O860        H879   0.990       .  S
O860        H883   0.991       .  S
O861        H875   0.990       .  S
O861        H882   0.990       .  S
O862        C866   1.284   1_565  A
O863        C866   1.292       .  A
O864        H874   0.990       .  S
O865        H878   0.990       .  S
C866       C1808   1.501       .  S
Zr889       O890   2.445       .  S
Zr889       O891   2.444       .  S
Zr889       O892   2.420       .  S
Zr889       O895   2.394       .  S
Zr889       O897   2.374       .  S
Zr889       O898   2.392       .  S
Zr889       O899   2.410   1_545  S
Zr889       O900   2.406       .  S
O890        H946   0.990       .  S
O890        H954   0.991       .  S
O891        C911   1.284       .  A
O892        C913   1.281       .  A
O893       Zr903   2.511       .  S
O893        C912   1.295       .  A
O894       Zr902   2.518       .  S
O894        C913   1.300   1_565  A
O895        C912   1.270       .  A
O896       Zr904   2.385       .  S
O896        C911   1.275       .  A
O897       Zr902   2.395   1_545  S
O897       Zr904   2.390       .  S
O898       Zr903   2.407       .  S
O898       Zr904   2.377       .  S
O898        H933   0.966       .  S
O899       Zr902   2.401       .  S
O899       Zr919   2.401       .  S
O899        H936   0.964       .  S
O900       Zr903   2.396       .  S
O900       Zr919   2.390   1_545  S
Zr901       O926   2.442       .  S
Zr901       O920   2.429       .  S
Zr901       O928   2.431       .  S
Zr901       O916   2.418       .  S
Zr901       O907   2.395   1_565  S
Zr901       O908   2.400   1_565  S
Zr901       O909   2.385       .  S
Zr901       O910   2.383       .  S
Zr902       O921   2.435       .  S
Zr902       O914   2.434   1_565  S
Zr902       O915   2.483       .  S
Zr902       O908   2.417   1_565  S
Zr902       O909   2.406       .  S
Zr903       O905   2.434       .  S
Zr903       O927   2.436       .  S
Zr903       O929   2.501       .  S
Zr903       O907   2.402       .  S
Zr903       O910   2.409   1_545  S
Zr904       O930   2.437       .  S
Zr904       O931   2.436       .  S
Zr904       O906   2.438       .  S
Zr904       O907   2.385       .  S
Zr904       O908   2.376       .  S
O905        H942   0.990       .  S
O906        H937   0.990       .  S
O906        H951   0.990       .  S
O908        H934   0.964       .  S
O909       Zr919   2.375       .  S
O910       Zr919   2.376       .  S
O910        H935   0.965       .  S
C911       C1486   1.471       .  S
C912       C2063   1.498       .  S
C913       C1794   1.517       .  S
O914        H950   0.990       .  S
O915        C917   1.295       .  A
O916        C917   1.282       .  A
C917       C1937   1.498       .  S
O918       Zr919   2.437       .  S
O918        H947   0.990       .  S
Zr919       O922   2.434       .  S
Zr919       O923   2.444       .  S
Zr919       O924   2.423       .  S
O920        C925   1.282       .  A
O921        H938   0.990       .  S
O921        H953   0.990       .  S
O922        H939   0.990       .  S
O923        H943   0.990       .  S
O923        H952   0.990       .  S
O924        C925   1.283       .  A
C925       C1472   1.495       .  S
O926        H945   0.990   1_565  S
O926        H949   0.990       .  S
O927        H941   0.990       .  S
O927        H948   0.990       .  S
O928        C932   1.285   1_565  A
O929        C932   1.298       .  A
O930        H940   0.990       .  S
O931        H944   0.990       .  S
C932       C2273   1.503       .  S
C955        C956   1.527       .  S
C955        C961   1.551       .  S
C955        C959   1.537       .  S
C955       C1489   1.528       .  S
C956        H963   1.086       .  S
C956        C957   1.358       .  D
C957        C958   1.533       .  S
C957       C1839   1.471       .  S
C958        C962   1.518       .  S
C958        C960   1.536       .  S
C958        H964   1.111       .  S
C959        H965   1.085       .  S
C959        C960   1.370       .  D
C960       C1458   1.478       .  S
C961        H966   1.080       .  S
C961        C962   1.360       .  D
C962       C1559   1.461       .  S
Zr967       O968   2.444       .  S
Zr967       O969   2.427       .  S
Zr967       O970   2.427       .  S
Zr967       O973   2.396       .  S
Zr967       O975   2.372       .  S
Zr967       O976   2.390   1_554  S
Zr967       O977   2.400   1_655  S
Zr967       O978   2.395   1_655  S
O968       H1024   0.990       .  S
O968       H1032   0.991       .  S
O969        C989   1.279       .  A
O970        C991   1.281       .  A
O971       Zr981   2.439       .  S
O971        C990   1.285   1_456  A
O972       Zr980   2.485       .  S
O972        C991   1.293       .  A
O973        C990   1.277       .  A
O974       Zr982   2.434       .  S
O974        C989   1.284   1_556  A
O975       Zr980   2.401       .  S
O975       Zr982   2.380   1_554  S
O976       Zr981   2.405   1_655  S
O976       Zr982   2.376       .  S
O976       H1011   0.965       .  S
O977       Zr980   2.411   1_455  S
O977       Zr997   2.395       .  S
O977       H1014   0.966       .  S
O978       Zr981   2.401   1_554  S
O978       Zr997   2.373       .  S
Zr979      O1004   2.439       .  S
Zr979       O998   2.446       .  S
Zr979      O1006   2.434       .  S
Zr979       O994   2.394       .  S
Zr979       O985   2.396   1_455  S
Zr979       O986   2.415   1_455  S
Zr979       O987   2.381   1_556  S
Zr979       O988   2.372       .  S
Zr980       O999   2.435   1_655  S
Zr980       O992   2.435       .  S
Zr980       O993   2.479   1_554  S
Zr980       O986   2.408   1_554  S
Zr980       O987   2.405   1_655  S
Zr981       O983   2.435       .  S
Zr981      O1005   2.437   1_455  S
Zr981      O1007   2.479       .  S
Zr981       O985   2.384   1_455  S
Zr981       O988   2.393       .  S
Zr982      O1008   2.437       .  S
Zr982      O1009   2.438       .  S
Zr982       O984   2.438       .  S
Zr982       O985   2.406       .  S
Zr982       O986   2.398       .  S
O983       H1020   0.990       .  S
O984       H1015   0.990       .  S
O984       H1029   0.990       .  S
O986       H1012   0.966       .  S
O987       Zr997   2.379       .  S
O988       Zr997   2.381   1_556  S
O988       H1013   0.967       .  S
C989       C2203   1.495       .  S
C990       C1640   1.454   1_655  S
C991       C1881   1.500       .  S
O992       H1028   0.990       .  S
O993        C995   1.295       .  A
O994        C995   1.276   1_455  A
C995       C1444   1.497       .  S
O996       Zr997   2.435       .  S
O996       H1025   0.990       .  S
Zr997      O1000   2.434       .  S
Zr997      O1001   2.439       .  S
Zr997      O1002   2.402       .  S
O998       C1003   1.286       .  A
O999       H1016   0.990   1_455  S
O999       H1031   0.990       .  S
O1000      H1017   0.990       .  S
O1001      H1021   0.990   1_554  S
O1001      H1030   0.990       .  S
O1002      C1003   1.278   1_554  A
C1003      C2147   1.475       .  S
O1004      H1023   0.990   1_455  S
O1004      H1027   0.990       .  S
O1005      H1019   0.990       .  S
O1005      H1026   0.990       .  S
O1006      C1010   1.284       .  A
O1007      C1010   1.292       .  A
O1008      H1018   0.990       .  S
O1009      H1022   0.990       .  S
C1010      C2119   1.496       .  S
Zr1033     O1034   2.443       .  S
Zr1033     O1035   2.412       .  S
Zr1033     O1036   2.420       .  S
Zr1033     O1039   2.389   1_554  S
Zr1033     O1041   2.371       .  S
Zr1033     O1042   2.383   1_554  S
Zr1033     O1043   2.389       .  S
Zr1033     O1044   2.395   1_554  S
O1034      H1090   0.991       .  S
O1034      H1098   0.991       .  S
O1035      C1055   1.279       .  A
O1036      C1057   1.281       .  A
O1037     Zr1047   2.473       .  S
O1037      C1056   1.291       .  A
O1038     Zr1046   2.447       .  S
O1038      C1057   1.286       .  A
O1039      C1056   1.279       .  A
O1040     Zr1048   2.416   1_554  S
O1040      C1055   1.282       .  A
O1041     Zr1046   2.390       .  S
O1041     Zr1048   2.378   1_554  S
O1042     Zr1047   2.396       .  S
O1042     Zr1048   2.381       .  S
O1042      H1077   0.965       .  S
O1043     Zr1046   2.393       .  S
O1043     Zr1063   2.391   1_554  S
O1043      H1080   0.966       .  S
O1044     Zr1047   2.397       .  S
O1044     Zr1063   2.388       .  S
Zr1045     O1070   2.441       .  S
Zr1045     O1064   2.425       .  S
Zr1045     O1072   2.429       .  S
Zr1045     O1060   2.421       .  S
Zr1045     O1051   2.398       .  S
Zr1045     O1052   2.402   1_556  S
Zr1045     O1053   2.374   1_556  S
Zr1045     O1054   2.384       .  S
Zr1046     O1065   2.437       .  S
Zr1046     O1058   2.434       .  S
Zr1046     O1059   2.430       .  S
Zr1046     O1052   2.404       .  S
Zr1046     O1053   2.394       .  S
Zr1047     O1049   2.434       .  S
Zr1047     O1071   2.438       .  S
Zr1047     O1073   2.461       .  S
Zr1047     O1051   2.397       .  S
Zr1047     O1054   2.397       .  S
Zr1048     O1074   2.436       .  S
Zr1048     O1075   2.434       .  S
Zr1048     O1050   2.436   1_556  S
Zr1048     O1051   2.388       .  S
Zr1048     O1052   2.395   1_556  S
O1049      H1086   0.990       .  S
O1050      H1081   0.990       .  S
O1050      H1095   0.990       .  S
O1052      H1078   0.966       .  S
O1053     Zr1063   2.370   1_554  S
O1054     Zr1063   2.385       .  S
O1054      H1079   0.966       .  S
C1055      C2301   1.486       .  S
C1056      C2158   1.485       .  S
C1057      C1430   1.484       .  S
O1058      H1094   0.990       .  S
O1059      C1061   1.283       .  A
O1060      C1061   1.283   1_556  A
C1061      C2217   1.465       .  S
O1062     Zr1063   2.435   1_554  S
O1062      H1091   0.990       .  S
Zr1063     O1066   2.436   1_556  S
Zr1063     O1067   2.437       .  S
Zr1063     O1068   2.408       .  S
O1064      C1069   1.281       .  A
O1065      H1082   0.990       .  S
O1065      H1097   0.990       .  S
O1066      H1083   0.990       .  S
O1067      H1087   0.991       .  S
O1067      H1096   0.990       .  S
O1068      C1069   1.279       .  A
C1069      C1755   1.459       .  S
O1070      H1089   0.990       .  S
O1070      H1093   0.990       .  S
O1071      H1085   0.990       .  S
O1071      H1092   0.990       .  S
O1072      C1076   1.283       .  A
O1073      C1076   1.291       .  A
O1074      H1084   0.990       .  S
O1075      H1088   0.990       .  S
C1076      C2469   1.498       .  S
Zr1099     O1100   2.447       .  S
Zr1099     O1101   2.441       .  S
Zr1099     O1102   2.413       .  S
Zr1099     O1105   2.401       .  S
Zr1099     O1107   2.374   1_655  S
Zr1099     O1108   2.380       .  S
Zr1099     O1109   2.409   1_655  S
Zr1099     O1110   2.396       .  S
O1100      H1156   0.990       .  S
O1100      H1164   0.991       .  S
O1101      C1121   1.283       .  A
O1102      C1123   1.278   1_655  A
O1103     Zr1113   2.478       .  S
O1103      C1122   1.292       .  A
O1104     Zr1112   2.477       .  S
O1104      C1123   1.291       .  A
O1105      C1122   1.279       .  A
O1106     Zr1114   2.431   1_655  S
O1106      C1121   1.282       .  A
O1107     Zr1112   2.406       .  S
O1107     Zr1114   2.390       .  S
O1108     Zr1113   2.404       .  S
O1108     Zr1114   2.380   1_655  S
O1108      H1143   0.967       .  S
O1109     Zr1112   2.404       .  S
O1109     Zr1129   2.410       .  S
O1109      H1146   0.966       .  S
O1110     Zr1113   2.387       .  S
O1110     Zr1129   2.390   1_655  S
Zr1111     O1136   2.445       .  S
Zr1111     O1130   2.468       .  S
Zr1111     O1138   2.408       .  S
Zr1111     O1126   2.418       .  S
Zr1111     O1117   2.408       .  S
Zr1111     O1118   2.413       .  S
Zr1111     O1119   2.373       .  S
Zr1111     O1120   2.375   1_455  S
Zr1112     O1131   2.436       .  S
Zr1112     O1124   2.435       .  S
Zr1112     O1125   2.464       .  S
Zr1112     O1118   2.410       .  S
Zr1112     O1119   2.416       .  S
Zr1113     O1115   2.435       .  S
Zr1113     O1137   2.439       .  S
Zr1113     O1139   2.466       .  S
Zr1113     O1117   2.399   1_655  S
Zr1113     O1120   2.409       .  S
Zr1114     O1140   2.435   1_455  S
Zr1114     O1141   2.436       .  S
Zr1114     O1116   2.438       .  S
Zr1114     O1117   2.397       .  S
Zr1114     O1118   2.398       .  S
O1115      H1152   0.990       .  S
O1116      H1147   0.990       .  S
O1116      H1161   0.990       .  S
O1118      H1144   0.963       .  S
O1119     Zr1129   2.383       .  S
O1120     Zr1129   2.374   1_655  S
O1120      H1145   0.966       .  S
C1121      C1867   1.505       .  S
C1122      C2441   1.483       .  S
C1123      C2007   1.499       .  S
O1124      H1160   0.990       .  S
O1125      C1127   1.288       .  A
O1126      C1127   1.280       .  A
C1127      C1416   1.479       .  S
O1128     Zr1129   2.438   1_655  S
O1128      H1157   0.990       .  S
Zr1129     O1132   2.434       .  S
Zr1129     O1133   2.440   1_455  S
Zr1129     O1134   2.444       .  S
O1130      C1135   1.289       .  A
O1131      H1148   0.990       .  S
O1131      H1163   0.990       .  S
O1132      H1149   0.990       .  S
O1133      H1153   0.990       .  S
O1133      H1162   0.990       .  S
O1134      C1135   1.286       .  A
C1135      C2102   1.514       .  S
O1136      H1155   0.991       .  S
O1136      H1159   0.991       .  S
O1137      H1151   0.990       .  S
O1137      H1158   0.990       .  S
O1138      C1142   1.281   1_455  A
O1139      C1142   1.291       .  A
O1140      H1150   0.990       .  S
O1141      H1154   0.990       .  S
C1142      C1685   1.498       .  S
C1165      C1166   1.534       .  S
C1165      C1171   1.530       .  S
C1165      C1169   1.538       .  S
C1165      C1727   1.528       .  S
C1166      H1173   1.086       .  S
C1166      C1167   1.368       .  D
C1167      C1168   1.549       .  S
C1167      C1419   1.493       .  S
C1168      C1172   1.544       .  S
C1168      C1170   1.556       .  S
C1168      H1174   1.110       .  S
C1169      H1175   1.083       .  S
C1169      C1170   1.365       .  D
C1170      C1545   1.491       .  S
C1171      H1176   1.087       .  S
C1171      C1172   1.357       .  D
C1172      C1402   1.480       .  S
Zr1177     O1178   2.441       .  S
Zr1177     O1179   2.417       .  S
Zr1177     O1180   2.443       .  S
Zr1177     O1183   2.404       .  S
Zr1177     O1185   2.377       .  S
Zr1177     O1186   2.387       .  S
Zr1177     O1187   2.391       .  S
Zr1177     O1188   2.403       .  S
O1178      H1234   0.990       .  S
O1178      H1242   0.990       .  S
O1179      C1199   1.280       .  A
O1180      C1201   1.286       .  A
O1181     Zr1191   2.455       .  S
O1181      C1200   1.289       .  A
O1182     Zr1190   2.485       .  S
O1182      C1201   1.294       .  A
O1183      C1200   1.279       .  A
O1184     Zr1192   2.400       .  S
O1184      C1199   1.277       .  A
O1185     Zr1190   2.395       .  S
O1185     Zr1192   2.385       .  S
O1186     Zr1191   2.398       .  S
O1186     Zr1192   2.369       .  S
O1186      H1221   0.965       .  S
O1187     Zr1190   2.403       .  S
O1187     Zr1207   2.391       .  S
O1187      H1224   0.965       .  S
O1188     Zr1191   2.401       .  S
O1188     Zr1207   2.390       .  S
Zr1189     O1214   2.443       .  S
Zr1189     O1208   2.435       .  S
Zr1189     O1216   2.435       .  S
Zr1189     O1204   2.412       .  S
Zr1189     O1195   2.391       .  S
Zr1189     O1196   2.416       .  S
Zr1189     O1197   2.382       .  S
Zr1189     O1198   2.377       .  S
Zr1190     O1209   2.435       .  S
Zr1190     O1202   2.435       .  S
Zr1190     O1203   2.463       .  S
Zr1190     O1196   2.412       .  S
Zr1190     O1197   2.407       .  S
Zr1191     O1193   2.435       .  S
Zr1191     O1215   2.439       .  S
Zr1191     O1217   2.476       .  S
Zr1191     O1195   2.386       .  S
Zr1191     O1198   2.401       .  S
Zr1192     O1218   2.435       .  S
Zr1192     O1219   2.436       .  S
Zr1192     O1194   2.436       .  S
Zr1192     O1195   2.385       .  S
Zr1192     O1196   2.375       .  S
O1193      H1230   0.990       .  S
O1194      H1225   0.991       .  S
O1194      H1239   0.990       .  S
O1196      H1222   0.965       .  S
O1197     Zr1207   2.382       .  S
O1198     Zr1207   2.389       .  S
O1198      H1223   0.966       .  S
C1199      C1461   1.454       .  S
C1200      C1405   1.466       .  S
C1201      C1388   1.504       .  S
O1202      H1238   0.990       .  S
O1203      C1205   1.291       .  A
O1204      C1205   1.279       .  A
C1205      C2427   1.479       .  S
O1206     Zr1207   2.440       .  S
O1206      H1235   0.991       .  S
Zr1207     O1210   2.440       .  S
Zr1207     O1211   2.442       .  S
Zr1207     O1212   2.405       .  S
O1208      C1213   1.283       .  A
O1209      H1226   0.990       .  S
O1209      H1241   0.990       .  S
O1210      H1227   0.990       .  S
O1211      H1231   0.990       .  S
O1211      H1240   0.990       .  S
O1212      C1213   1.277       .  A
C1213      C1374   1.490       .  S
O1214      H1233   0.991       .  S
O1214      H1237   0.990       .  S
O1215      H1229   0.990       .  S
O1215      H1236   0.990       .  S
O1216      C1220   1.285       .  A
O1217      C1220   1.291       .  A
O1218      H1228   0.990       .  S
O1219      H1232   0.990       .  S
C1220      C2483   1.498       .  S
C1243      C1244   1.545       .  S
C1243      C1249   1.535       .  S
C1243      C1247   1.534       .  S
C1243      C1433   1.542       .  S
C1244      H1251   1.081       .  S
C1244      C1245   1.365       .  D
C1245      C1246   1.554       .  S
C1245      C1965   1.502       .  S
C1246      C1250   1.562       .  S
C1246      C1248   1.560       .  S
C1246      H1252   1.110       .  S
C1247      H1253   1.086       .  S
C1247      C1248   1.365       .  D
C1248      C1391   1.500       .  S
C1249      H1254   1.083       .  S
C1249      C1250   1.364       .  D
C1250      C1531   1.505       .  S
C1255      C1256   1.557       .  S
C1255      C1261   1.531   1_655  S
C1255      C1259   1.525       .  S
C1255      C1598   1.536       .  S
C1256      H1263   1.082       .  S
C1256      C1257   1.379       .  D
C1257      C1258   1.547       .  S
C1257      C2679   1.507       .  S
C1258      C1262   1.559   1_655  S
C1258      C1260   1.552       .  S
C1258      H1264   1.110       .  S
C1259      H1265   1.087       .  S
C1259      C1260   1.359       .  D
C1260      C1447   1.492       .  S
C1261      H1266   1.087       .  S
C1261      C1262   1.358       .  D
C1262      C1360   1.496       .  S
Zr1267     O1268   2.440       .  S
Zr1267     O1269   2.450       .  S
Zr1267     O1270   2.406       .  S
Zr1267     O1273   2.388       .  S
Zr1267     O1275   2.373       .  S
Zr1267     O1276   2.375       .  S
Zr1267     O1277   2.402       .  S
Zr1267     O1278   2.405       .  S
O1268      H1324   0.990       .  S
O1268      H1332   0.990       .  S
O1269      C1289   1.287       .  A
O1270      C1291   1.281       .  A
O1271     Zr1281   2.502       .  S
O1271      C1290   1.297       .  A
O1272     Zr1280   2.449       .  S
O1272      C1291   1.287       .  A
O1273      C1290   1.277       .  A
O1274     Zr1282   2.390       .  S
O1274      C1289   1.277       .  A
O1275     Zr1280   2.397       .  S
O1275     Zr1282   2.386       .  S
O1276     Zr1281   2.387       .  S
O1276     Zr1282   2.371       .  S
O1276      H1311   0.966       .  S
O1277     Zr1280   2.400       .  S
O1277     Zr1297   2.401       .  S
O1277      H1314   0.965       .  S
O1278     Zr1281   2.389       .  S
O1278     Zr1297   2.405       .  S
Zr1279     O1304   2.443       .  S
Zr1279     O1298   2.426       .  S
Zr1279     O1306   2.404       .  S
Zr1279     O1294   2.449       .  S
Zr1279     O1285   2.400       .  S
Zr1279     O1286   2.398       .  S
Zr1279     O1287   2.371       .  S
Zr1279     O1288   2.397       .  S
Zr1280     O1299   2.437       .  S
Zr1280     O1292   2.433       .  S
Zr1280     O1293   2.443       .  S
Zr1280     O1286   2.402       .  S
Zr1280     O1287   2.406       .  S
Zr1281     O1283   2.433       .  S
Zr1281     O1305   2.438       .  S
Zr1281     O1307   2.458       .  S
Zr1281     O1285   2.401       .  S
Zr1281     O1288   2.416       .  S
Zr1282     O1308   2.435       .  S
Zr1282     O1309   2.437       .  S
Zr1282     O1284   2.437       .  S
Zr1282     O1285   2.368       .  S
Zr1282     O1286   2.381       .  S
O1283      H1320   0.990       .  S
O1284      H1315   0.991       .  S
O1284      H1329   0.990       .  S
O1286      H1312   0.964       .  S
O1287     Zr1297   2.383       .  S
O1288     Zr1297   2.376       .  S
O1288      H1313   0.966       .  S
C1289      C2130   1.486       .  S
C1290      C1363   1.501       .  S
C1291      C2077   1.482       .  S
O1292      H1328   0.990       .  S
O1293      C1295   1.285       .  A
O1294      C1295   1.286       .  A
C1295      C1346   1.481       .  S
O1296     Zr1297   2.435       .  S
O1296      H1325   0.990       .  S
Zr1297     O1300   2.436       .  S
Zr1297     O1301   2.439       .  S
Zr1297     O1302   2.438       .  S
O1298      C1303   1.280       .  A
O1299      H1316   0.990       .  S
O1299      H1331   0.990       .  S
O1300      H1317   0.990       .  S
O1301      H1321   0.990       .  S
O1301      H1330   0.989       .  S
O1302      C1303   1.283       .  A
C1303      C1909   1.475       .  S
O1304      H1323   0.991       .  S
O1304      H1327   0.990       .  S
O1305      H1319   0.990       .  S
O1305      H1326   0.990       .  S
O1306      C1310   1.280       .  A
O1307      C1310   1.290       .  A
O1308      H1318   0.990       .  S
O1309      H1322   0.990       .  S
C1310      C2231   1.479       .  S
C1333      C1334   1.529       .  S
C1333      C1339   1.538       .  S
C1333      C1337   1.547       .  S
C1333      C1475   1.535       .  S
C1334      H1341   1.087       .  S
C1334      C1335   1.355       .  D
C1335      C1336   1.545       .  S
C1335      C2637   1.480       .  S
C1336      C1340   1.541       .  S
C1336      C1338   1.537       .  S
C1336      H1342   1.110       .  S
C1337      H1343   1.086       .  S
C1337      C1338   1.375       .  D
C1338      C1377   1.484       .  S
C1339      H1344   1.082       .  S
C1339      C1340   1.361       .  D
C1340      C1349   1.482       .  S
C1345      C1346   1.405       .  A
C1345      C1350   1.405       .  A
C1345      H1352   1.084       .  S
C1346      C1347   1.417       .  A
C1347      C1348   1.407       .  A
C1347      N1354   1.438       .  S
C1348      C1349   1.406       .  A
C1348      H1353   1.084       .  S
C1349      C1350   1.405       .  A
C1350      N1351   1.438       .  S
N1351      H1355   1.046       .  S
N1351      H1356   1.045       .  S
N1354      H1357   1.042       .  S
N1354      H1358   1.046       .  S
C1359      C1360   1.411       .  A
C1359      C1364   1.418       .  A
C1359      H1366   1.084       .  S
C1360      C1361   1.406       .  A
C1361      C1362   1.406       .  A
C1361      N1368   1.436       .  S
C1362      C1363   1.411       .  A
C1362      H1367   1.081       .  S
C1363      C1364   1.413       .  A
C1364      N1365   1.436       .  S
N1365      H1369   1.046       .  S
N1365      H1370   1.045       .  S
N1368      H1371   1.046       .  S
N1368      H1372   1.046       .  S
C1373      C1374   1.406       .  A
C1373      C1378   1.400       .  A
C1373      H1380   1.084       .  S
C1374      C1375   1.418       .  A
C1375      C1376   1.403       .  A
C1375      N1382   1.433       .  S
C1376      C1377   1.401       .  A
C1376      H1381   1.084       .  S
C1377      C1378   1.409       .  A
C1378      N1379   1.431       .  S
N1379      H1383   1.046       .  S
N1379      H1384   1.046       .  S
N1382      H1385   1.046       .  S
N1382      H1386   1.046       .  S
C1387      C1388   1.409       .  A
C1387      C1392   1.412       .  A
C1387      H1394   1.084       .  S
C1388      C1389   1.414       .  A
C1389      C1390   1.416       .  A
C1389      N1396   1.431       .  S
C1390      C1391   1.407       .  A
C1390      H1395   1.084       .  S
C1391      C1392   1.409       .  A
C1392      N1393   1.431       .  S
N1393      H1397   1.046       .  S
N1393      H1398   1.045       .  S
N1396      H1399   1.046       .  S
N1396      H1400   1.046       .  S
C1401      C1402   1.402       .  A
C1401      C1406   1.400       .  A
C1401      H1408   1.084       .  S
C1402      C1403   1.416       .  A
C1403      C1404   1.400       .  A
C1403      N1410   1.433       .  S
C1404      C1405   1.401       .  A
C1404      H1409   1.084       .  S
C1405      C1406   1.411       .  A
C1406      N1407   1.433       .  S
N1407      H1411   1.046       .  S
N1407      H1412   1.046       .  S
N1410      H1413   1.044       .  S
N1410      H1414   1.044       .  S
C1415      C1416   1.408       .  A
C1415      C1420   1.413       .  A
C1415      H1422   1.084       .  S
C1416      C1417   1.409       .  A
C1417      C1418   1.404       .  A
C1417      N1424   1.438       .  S
C1418      C1419   1.406       .  A
C1418      H1423   1.084       .  S
C1419      C1420   1.407       .  A
C1420      N1421   1.431       .  S
N1421      H1425   1.045       .  S
N1421      H1426   1.045       .  S
N1424      H1427   1.045       .  S
N1424      H1428   1.046       .  S
C1429      C1430   1.401       .  A
C1429      C1434   1.407       .  A
C1429      H1436   1.084       .  S
C1430      C1431   1.409       .  A
C1431      C1432   1.403       .  A
C1431      N1438   1.433       .  S
C1432      C1433   1.411       .  A
C1432      H1437   1.077       .  S
C1433      C1434   1.420       .  A
C1434      N1435   1.433       .  S
N1435      H1439   1.045       .  S
N1435      H1440   1.046       .  S
N1438      H1441   1.046       .  S
N1438      H1442   1.046       .  S
C1443      C1444   1.404       .  A
C1443      C1448   1.412       .  A
C1443      H1450   1.083       .  S
C1444      C1445   1.423   1_655  A
C1445      C1446   1.398       .  A
C1445      N1452   1.432       .  S
C1446      C1447   1.391   1_455  A
C1446      H1451   1.079       .  S
C1447      C1448   1.420       .  A
C1448      N1449   1.438       .  S
N1449      H1453   1.046       .  S
N1449      H1454   1.045       .  S
N1452      H1455   1.045       .  S
N1452      H1456   1.046       .  S
C1457      C1458   1.404       .  A
C1457      C1462   1.393       .  A
C1457      H1464   1.080       .  S
C1458      C1459   1.416       .  A
C1459      C1460   1.400       .  A
C1459      N1466   1.439       .  S
C1460      C1461   1.397       .  A
C1460      H1465   1.085       .  S
C1461      C1462   1.406       .  A
C1462      N1463   1.433       .  S
N1463      H1467   1.045       .  S
N1463      H1468   1.046       .  S
N1466      H1469   1.043       .  S
N1466      H1470   1.046       .  S
C1471      C1472   1.408       .  A
C1471      C1476   1.402       .  A
C1471      H1478   1.083       .  S
C1472      C1473   1.418       .  A
C1473      C1474   1.398       .  A
C1473      N1480   1.433       .  S
C1474      C1475   1.412       .  A
C1474      H1479   1.076       .  S
C1475      C1476   1.413       .  A
C1476      N1477   1.433       .  S
N1477      H1481   1.046       .  S
N1477      H1482   1.045       .  S
N1480      H1483   1.045       .  S
N1480      H1484   1.045       .  S
C1485      C1486   1.399       .  A
C1485      C1490   1.402       .  A
C1485      H1492   1.084       .  S
C1486      C1487   1.411       .  A
C1487      C1488   1.397       .  A
C1487      N1494   1.440       .  S
C1488      C1489   1.408       .  A
C1488      H1493   1.073       .  S
C1489      C1490   1.419       .  A
C1490      N1491   1.433       .  S
N1491      H1495   1.046       .  S
N1491      H1496   1.046       .  S
N1494      H1497   1.046       .  S
N1494      H1498   1.046       .  S
C1499      C1500   1.403       .  A
C1499      C1504   1.391       .  A
C1499      H1506   1.085   1_554  S
C1500      C1501   1.405       .  A
C1501      C1502   1.397       .  A
C1501      N1508   1.432       .  S
C1502      C1503   1.406       .  A
C1502      H1507   1.084       .  S
C1503      C1504   1.410       .  A
C1504      N1505   1.439   1_554  S
N1505      H1509   1.046       .  S
N1505      H1510   1.044       .  S
N1508      H1511   1.045       .  S
N1508      H1512   1.045       .  S
C1513      C1514   1.419       .  A
C1513      C1518   1.418       .  A
C1513      H1520   1.078       .  S
C1514      C1515   1.417       .  A
C1515      C1516   1.405       .  A
C1515      N1522   1.433       .  S
C1516      C1517   1.406       .  A
C1516      H1521   1.084       .  S
C1517      C1518   1.417       .  A
C1518      N1519   1.432   1_455  S
N1519      H1523   1.045       .  S
N1519      H1524   1.046   1_545  S
N1522      H1525   1.046   1_545  S
N1522      H1526   1.046       .  S
C1527      C1528   1.407       .  A
C1527      C1532   1.410       .  A
C1527      H1534   1.083       .  S
C1528      C1529   1.424       .  A
C1529      C1530   1.409       .  A
C1529      N1536   1.433       .  S
C1530      C1531   1.398       .  A
C1530      H1535   1.080       .  S
C1531      C1532   1.424       .  A
C1532      N1533   1.434       .  S
N1533      H1537   1.041       .  S
N1533      H1538   1.045       .  S
N1536      H1539   1.046       .  S
N1536      H1540   1.046       .  S
C1541      C1542   1.404       .  A
C1541      C1546   1.409       .  A
C1541      H1548   1.084       .  S
C1542      C1543   1.416       .  A
C1543      C1544   1.410       .  A
C1543      N1550   1.438       .  S
C1544      C1545   1.401       .  A
C1544      H1549   1.082       .  S
C1545      C1546   1.421       .  A
C1546      N1547   1.439       .  S
N1547      H1551   1.046       .  S
N1547      H1552   1.043       .  S
N1550      H1553   1.046       .  S
N1550      H1554   1.046       .  S
C1555      C1556   1.405       .  A
C1555      C1560   1.400       .  A
C1555      H1562   1.083       .  S
C1556      C1557   1.417       .  A
C1557      C1558   1.399       .  A
C1557      N1564   1.438       .  S
C1558      C1559   1.394       .  A
C1558      H1563   1.084       .  S
C1559      C1560   1.405       .  A
C1560      N1561   1.435       .  S
N1561      H1565   1.046       .  S
N1561      H1566   1.045       .  S
N1564      H1567   1.046       .  S
N1564      H1568   1.045       .  S
C1569      C1570   1.408       .  A
C1569      C1574   1.417       .  A
C1569      H1576   1.084       .  S
C1570      C1571   1.426       .  A
C1571      C1572   1.418       .  A
C1571      N1578   1.438       .  S
C1572      C1573   1.402       .  A
C1572      H1577   1.083       .  S
C1573      C1574   1.425       .  A
C1574      N1575   1.438       .  S
N1575      H1579   1.046       .  S
N1575      H1580   1.044       .  S
N1578      H1581   1.046       .  S
N1578      H1582   1.046       .  S
C1583      C1584   1.406       .  A
C1583      C1588   1.408       .  A
C1583      H1590   1.084       .  S
C1584      C1585   1.402       .  A
C1585      C1586   1.400       .  A
C1585      N1592   1.438       .  S
C1586      C1587   1.410       .  A
C1586      H1591   1.084       .  S
C1587      C1588   1.410       .  A
C1588      N1589   1.437       .  S
N1589      H1593   1.046       .  S
N1589      H1594   1.046       .  S
N1592      H1595   1.046       .  S
N1592      H1596   1.046       .  S
C1597      C1598   1.404       .  A
C1597      C1602   1.402       .  A
C1597      H1604   1.079       .  S
C1598      C1599   1.425   1_655  A
C1599      C1600   1.407       .  A
C1599      N1606   1.433       .  S
C1600      C1601   1.397   1_455  A
C1600      H1605   1.084   1_556  S
C1601      C1602   1.414       .  A
C1602      N1603   1.434       .  S
N1603      H1607   1.046       .  S
N1603      H1608   1.046       .  S
N1606      H1609   1.045       .  S
N1606      H1610   1.046       .  S
C1611      C1612   1.409   1_556  A
C1611      C1616   1.405       .  A
C1611      H1618   1.082       .  S
C1612      C1613   1.420       .  A
C1613      C1614   1.408       .  A
C1613      N1620   1.430       .  S
C1614      C1615   1.398       .  A
C1614      H1619   1.084       .  S
C1615      C1616   1.407   1_554  A
C1616      N1617   1.438       .  S
N1617      H1621   1.045       .  S
N1617      H1622   1.045       .  S
N1620      H1623   1.046       .  S
N1620      H1624   1.046       .  S
C1625      C1626   1.410       .  A
C1625      C1630   1.411       .  A
C1625      H1632   1.084       .  S
C1626      C1627   1.415   1_545  A
C1627      C1628   1.418       .  A
C1627      N1634   1.437       .  S
C1628      C1629   1.408   1_565  A
C1628      H1633   1.082       .  S
C1629      C1630   1.411       .  A
C1630      N1631   1.438       .  S
N1631      H1635   1.046       .  S
N1631      H1636   1.045       .  S
N1634      H1637   1.045       .  S
N1634      H1638   1.046       .  S
C1639      C1640   1.400       .  A
C1639      C1644   1.398       .  A
C1639      H1646   1.084       .  S
C1640      C1641   1.404   1_455  A
C1641      C1642   1.401       .  A
C1641      N1648   1.439   1_554  S
C1642      C1643   1.408   1_655  A
C1642      H1647   1.084       .  S
C1643      C1644   1.403       .  A
C1644      N1645   1.428       .  S
N1645      H1649   1.046       .  S
N1645      H1650   1.045       .  S
N1648      H1651   1.046       .  S
N1648      H1652   1.046       .  S
C1653      C1654   1.402       .  A
C1653      C1658   1.403       .  A
C1653      H1660   1.075       .  S
C1654      C1655   1.418       .  A
C1655      C1656   1.403       .  A
C1655      N1662   1.433       .  S
C1656      C1657   1.401       .  A
C1656      H1661   1.084       .  S
C1657      C1658   1.411       .  A
C1658      N1659   1.432       .  S
N1659      H1663   1.045       .  S
N1659      H1664   1.046       .  S
N1662      H1665   1.046       .  S
N1662      H1666   1.046       .  S
C1667      C1668   1.398   1_655  A
C1667      C1672   1.401       .  A
C1667      H1674   1.084       .  S
C1668      C1669   1.401       .  A
C1669      C1670   1.391       .  A
C1669      N1676   1.433       .  S
C1670      C1671   1.408       .  A
C1670      H1675   1.082       .  S
C1671      C1672   1.418   1_455  A
C1672      N1673   1.432       .  S
N1673      H1677   1.046       .  S
N1673      H1678   1.046       .  S
N1676      H1679   1.046       .  S
N1676      H1680   1.046       .  S
C1681      C1682   1.415       .  A
C1681      C1686   1.408       .  A
C1681      H1688   1.083       .  S
C1682      C1683   1.416   1_655  A
C1683      C1684   1.405       .  A
C1683      N1690   1.436       .  S
C1684      C1685   1.410   1_455  A
C1684      H1689   1.082       .  S
C1685      C1686   1.409       .  A
C1686      N1687   1.432       .  S
N1687      H1691   1.046       .  S
N1687      H1692   1.046       .  S
N1690      H1693   1.045       .  S
N1690      H1694   1.046       .  S
C1695      C1696   1.405       .  A
C1695      C1700   1.409       .  A
C1695      H1702   1.083       .  S
C1696      C1697   1.408       .  A
C1697      C1698   1.399   1_655  A
C1697      N1704   1.438   1_655  S
C1698      C1699   1.401   1_455  A
C1698      H1703   1.083       .  S
C1699      C1700   1.410       .  A
C1700      N1701   1.432       .  S
N1701      H1705   1.046       .  S
N1701      H1706   1.045       .  S
N1704      H1707   1.046       .  S
N1704      H1708   1.046       .  S
C1709      C1710   1.406       .  A
C1709      C1714   1.411       .  A
C1709      H1716   1.084       .  S
C1710      C1711   1.416       .  A
C1711      C1712   1.408       .  A
C1711      N1718   1.438       .  S
C1712      C1713   1.402       .  A
C1712      H1717   1.084       .  S
C1713      C1714   1.418       .  A
C1714      N1715   1.437       .  S
N1715      H1719   1.045       .  S
N1715      H1720   1.044       .  S
N1718      H1721   1.046       .  S
N1718      H1722   1.046       .  S
C1723      C1724   1.394       .  A
C1723      C1728   1.395       .  A
C1723      H1730   1.085       .  S
C1724      C1725   1.404       .  A
C1725      C1726   1.405       .  A
C1725      N1732   1.438       .  S
C1726      C1727   1.414       .  A
C1726      H1731   1.077       .  S
C1727      C1728   1.421       .  A
C1728      N1729   1.433       .  S
N1729      H1733   1.046       .  S
N1729      H1734   1.046       .  S
N1732      H1735   1.045       .  S
N1732      H1736   1.046       .  S
C1737      C1738   1.403       .  A
C1737      C1742   1.384       .  A
C1737      H1744   1.084       .  S
C1738      C1739   1.404       .  A
C1739      C1740   1.402       .  A
C1739      N1746   1.433       .  S
C1740      C1741   1.416       .  A
C1740      H1745   1.075       .  S
C1741      C1742   1.424       .  A
C1742      N1743   1.436       .  S
N1743      H1747   1.041       .  S
N1743      H1748   1.043       .  S
N1746      H1749   1.046       .  S
N1746      H1750   1.046       .  S
C1751      C1752   1.405       .  A
C1751      C1756   1.403       .  A
C1751      H1758   1.084       .  S
C1752      C1753   1.409       .  A
C1753      C1754   1.397       .  A
C1753      N1760   1.431       .  S
C1754      C1755   1.398       .  A
C1754      H1759   1.084       .  S
C1755      C1756   1.406       .  A
C1756      N1757   1.437       .  S
N1757      H1761   1.046       .  S
N1757      H1762   1.046       .  S
N1760      H1763   1.045       .  S
N1760      H1764   1.046       .  S
C1765      C1766   1.410       .  A
C1765      C1770   1.400       .  A
C1765      H1772   1.076       .  S
C1766      C1767   1.435       .  A
C1767      C1768   1.405       .  A
C1767      N1774   1.434       .  S
C1768      C1769   1.397       .  A
C1768      H1773   1.084   1_556  S
C1769      C1770   1.409       .  A
C1770      N1771   1.434       .  S
N1771      H1775   1.046       .  S
N1771      H1776   1.046       .  S
N1774      H1777   1.043       .  S
N1774      H1778   1.040       .  S
C1779      C1780   1.405       .  A
C1779      C1784   1.415       .  A
C1779      H1786   1.083       .  S
C1780      C1781   1.414       .  A
C1781      C1782   1.406       .  A
C1781      N1788   1.432       .  S
C1782      C1783   1.401       .  A
C1782      H1787   1.084       .  S
C1783      C1784   1.413       .  A
C1784      N1785   1.437       .  S
N1785      H1789   1.046       .  S
N1785      H1790   1.046       .  S
N1788      H1791   1.046       .  S
N1788      H1792   1.046       .  S
C1793      C1794   1.409       .  A
C1793      C1798   1.405       .  A
C1793      H1800   1.084       .  S
C1794      C1795   1.412       .  A
C1795      C1796   1.427       .  A
C1795      N1802   1.437       .  S
C1796      C1797   1.424       .  A
C1796      H1801   1.076       .  S
C1797      C1798   1.430       .  A
C1798      N1799   1.435       .  S
N1799      H1803   1.042       .  S
N1799      H1804   1.042   1_545  S
N1802      H1805   1.045   1_545  S
N1802      H1806   1.045       .  S
C1807      C1808   1.410   1_565  A
C1807      C1812   1.410       .  A
C1807      H1814   1.084       .  S
C1808      C1809   1.418       .  A
C1809      C1810   1.407       .  A
C1809      N1816   1.432       .  S
C1810      C1811   1.408       .  A
C1810      H1815   1.083       .  S
C1811      C1812   1.411   1_545  A
C1812      N1813   1.432       .  S
N1813      H1817   1.046       .  S
N1813      H1818   1.045       .  S
N1816      H1819   1.046       .  S
N1816      H1820   1.045       .  S
C1821      C1822   1.412       .  A
C1821      C1826   1.409       .  A
C1821      H1828   1.083       .  S
C1822      C1823   1.415       .  A
C1823      C1824   1.422       .  A
C1823      N1830   1.436       .  S
C1824      C1825   1.410       .  A
C1824      H1829   1.083       .  S
C1825      C1826   1.409       .  A
C1826      N1827   1.438       .  S
N1827      H1831   1.046       .  S
N1827      H1832   1.046       .  S
N1830      H1833   1.045       .  S
N1830      H1834   1.046       .  S
C1835      C1836   1.397       .  A
C1835      C1840   1.396       .  A
C1835      H1842   1.084       .  S
C1836      C1837   1.412       .  A
C1837      C1838   1.399       .  A
C1837      N1844   1.439       .  S
C1838      C1839   1.398       .  A
C1838      H1843   1.080       .  S
C1839      C1840   1.411       .  A
C1840      N1841   1.433       .  S
N1841      H1845   1.046       .  S
N1841      H1846   1.045       .  S
N1844      H1847   1.046       .  S
N1844      H1848   1.046       .  S
C1849      C1850   1.406       .  A
C1849      C1854   1.394       .  A
C1849      H1856   1.083       .  S
C1850      C1851   1.420       .  A
C1851      C1852   1.405       .  A
C1851      N1858   1.433       .  S
C1852      C1853   1.398       .  A
C1852      H1857   1.084       .  S
C1853      C1854   1.410       .  A
C1854      N1855   1.433       .  S
N1855      H1859   1.045       .  S
N1855      H1860   1.044       .  S
N1858      H1861   1.046       .  S
N1858      H1862   1.046       .  S
C1863      C1864   1.410       .  A
C1863      C1868   1.398       .  A
C1863      H1870   1.075       .  S
C1864      C1865   1.417       .  A
C1865      C1866   1.411       .  A
C1865      N1872   1.433       .  S
C1866      C1867   1.410       .  A
C1866      H1871   1.083       .  S
C1867      C1868   1.421       .  A
C1868      N1869   1.432       .  S
N1869      H1873   1.045       .  S
N1869      H1874   1.045       .  S
N1872      H1875   1.045       .  S
N1872      H1876   1.046       .  S
C1877      C1878   1.410       .  A
C1877      C1882   1.421       .  A
C1877      H1884   1.082       .  S
C1878      C1879   1.406       .  A
C1879      C1880   1.406       .  A
C1879      N1886   1.432       .  S
C1880      C1881   1.409       .  A
C1880      H1885   1.084       .  S
C1881      C1882   1.415       .  A
C1882      N1883   1.437       .  S
N1883      H1887   1.046       .  S
N1883      H1888   1.046       .  S
N1886      H1889   1.045       .  S
N1886      H1890   1.045       .  S
C1891      C1892   1.410       .  A
C1891      C1896   1.408       .  A
C1891      H1898   1.084       .  S
C1892      C1893   1.407       .  A
C1893      C1894   1.416       .  A
C1893      N1900   1.431       .  S
C1894      C1895   1.416       .  A
C1894      H1899   1.083       .  S
C1895      C1896   1.416       .  A
C1896      N1897   1.432       .  S
N1897      H1901   1.046       .  S
N1897      H1902   1.046       .  S
N1900      H1903   1.045       .  S
N1900      H1904   1.045       .  S
C1905      C1906   1.407       .  A
C1905      C1910   1.411       .  A
C1905      H1912   1.083       .  S
C1906      C1907   1.417       .  A
C1907      C1908   1.402       .  A
C1907      N1914   1.429       .  S
C1908      C1909   1.396       .  A
C1908      H1913   1.084       .  S
C1909      C1910   1.410       .  A
C1910      N1911   1.437       .  S
N1911      H1915   1.046       .  S
N1911      H1916   1.045       .  S
N1914      H1917   1.046       .  S
N1914      H1918   1.045       .  S
C1919      C1920   1.397       .  A
C1919      C1924   1.400       .  A
C1919      H1926   1.085       .  S
C1920      C1921   1.412       .  A
C1921      C1922   1.409       .  A
C1921      N1928   1.438       .  S
C1922      C1923   1.401       .  A
C1922      H1927   1.084       .  S
C1923      C1924   1.417       .  A
C1924      N1925   1.439       .  S
N1925      H1929   1.046       .  S
N1925      H1930   1.045       .  S
N1928      H1931   1.045       .  S
N1928      H1932   1.046       .  S
C1933      C1934   1.407       .  A
C1933      C1938   1.412       .  A
C1933      H1940   1.084       .  S
C1934      C1935   1.404       .  A
C1935      C1936   1.405       .  A
C1935      N1942   1.432       .  S
C1936      C1937   1.412       .  A
C1936      H1941   1.084       .  S
C1937      C1938   1.416       .  A
C1938      N1939   1.437       .  S
N1939      H1943   1.046       .  S
N1939      H1944   1.045       .  S
N1942      H1945   1.045       .  S
N1942      H1946   1.046       .  S
C1947      C1948   1.395       .  A
C1947      C1952   1.392       .  A
C1947      H1954   1.085       .  S
C1948      C1949   1.411       .  A
C1949      C1950   1.400       .  A
C1949      N1956   1.433       .  S
C1950      C1951   1.412       .  A
C1950      H1955   1.077       .  S
C1951      C1952   1.432       .  A
C1952      N1953   1.436       .  S
N1953      H1957   1.042       .  S
N1953      H1958   1.042       .  S
N1956      H1959   1.044       .  S
N1956      H1960   1.046       .  S
C1961      C1962   1.406       .  A
C1961      C1966   1.417       .  A
C1961      H1968   1.083       .  S
C1962      C1963   1.411       .  A
C1963      C1964   1.406       .  A
C1963      N1970   1.433       .  S
C1964      C1965   1.404       .  A
C1964      H1969   1.084       .  S
C1965      C1966   1.422       .  A
C1966      N1967   1.436       .  S
N1967      H1971   1.046       .  S
N1967      H1972   1.043       .  S
N1970      H1973   1.045       .  S
N1970      H1974   1.046       .  S
C1975      C1976   1.407       .  A
C1975      C1980   1.411       .  A
C1975      H1982   1.084       .  S
C1976      C1977   1.420       .  A
C1977      C1978   1.429       .  A
C1977      N1984   1.436       .  S
C1978      C1979   1.411       .  A
C1978      H1983   1.083       .  S
C1979      C1980   1.417       .  A
C1980      N1981   1.439       .  S
N1981      H1985   1.045       .  S
N1981      H1986   1.044       .  S
N1984      H1987   1.046       .  S
N1984      H1988   1.046       .  S
C1989      C1990   1.404       .  A
C1989      C1994   1.409       .  A
C1989      H1996   1.084       .  S
C1990      C1991   1.405       .  A
C1991      C1992   1.392       .  A
C1991      N1998   1.433       .  S
C1992      C1993   1.407       .  A
C1992      H1997   1.084       .  S
C1993      C1994   1.422       .  A
C1994      N1995   1.439       .  S
N1995      H1999   1.046       .  S
N1995      H2000   1.041       .  S
N1998      H2001   1.045       .  S
N1998      H2002   1.043       .  S
C2003      C2004   1.410       .  A
C2003      C2008   1.417       .  A
C2003      H2010   1.083       .  S
C2004      C2005   1.406   1_455  A
C2005      C2006   1.403       .  A
C2005      N2012   1.433       .  S
C2006      C2007   1.410   1_655  A
C2006      H2011   1.084       .  S
C2007      C2008   1.415       .  A
C2008      N2009   1.437       .  S
N2009      H2013   1.046       .  S
N2009      H2014   1.045       .  S
N2012      H2015   1.046       .  S
N2012      H2016   1.046       .  S
C2017      C2018   1.414       .  A
C2017      C2022   1.400       .  A
C2017      H2024   1.074       .  S
C2018      C2019   1.426   1_455  A
C2019      C2020   1.403       .  A
C2019      N2026   1.434       .  S
C2020      C2021   1.407   1_655  A
C2020      H2025   1.084       .  S
C2021      C2022   1.409       .  A
C2022      N2023   1.433       .  S
N2023      H2027   1.046       .  S
N2023      H2028   1.046       .  S
N2026      H2029   1.043       .  S
N2026      H2030   1.043       .  S
C2031      C2032   1.400       .  A
C2031      C2036   1.410       .  A
C2031      H2038   1.084       .  S
C2032      C2033   1.417       .  A
C2033      C2034   1.407       .  A
C2033      N2040   1.439       .  S
C2034      C2035   1.407       .  A
C2034      H2039   1.076       .  S
C2035      C2036   1.424       .  A
C2036      N2037   1.433       .  S
N2037      H2041   1.046       .  S
N2037      H2042   1.046       .  S
N2040      H2043   1.045       .  S
N2040      H2044   1.046       .  S
C2045      C2046   1.406       .  A
C2045      C2050   1.410       .  A
C2045      H2052   1.084       .  S
C2046      C2047   1.414       .  A
C2047      C2048   1.404       .  A
C2047      N2054   1.439       .  S
C2048      C2049   1.400       .  A
C2048      H2053   1.082       .  S
C2049      C2050   1.407       .  A
C2050      N2051   1.431       .  S
N2051      H2055   1.045       .  S
N2051      H2056   1.046       .  S
N2054      H2057   1.046       .  S
N2054      H2058   1.046       .  S
C2059      C2060   1.409       .  A
C2059      C2064   1.414       .  A
C2059      H2066   1.083       .  S
C2060      C2061   1.408       .  A
C2061      C2062   1.410       .  A
C2061      N2068   1.432       .  S
C2062      C2063   1.410       .  A
C2062      H2067   1.084       .  S
C2063      C2064   1.423       .  A
C2064      N2065   1.438       .  S
N2065      H2069   1.045       .  S
N2065      H2070   1.041       .  S
N2068      H2071   1.046       .  S
N2068      H2072   1.046       .  S
C2073      C2074   1.419       .  A
C2073      C2078   1.413       .  A
C2073      H2080   1.075       .  S
C2074      C2075   1.426       .  A
C2075      C2076   1.388       .  A
C2075      N2082   1.436       .  S
C2076      C2077   1.400       .  A
C2076      H2081   1.083       .  S
C2077      C2078   1.406       .  A
C2078      N2079   1.438       .  S
N2079      H2083   1.045       .  S
N2079      H2084   1.046       .  S
N2082      H2085   1.041       .  S
N2082      H2086   1.041       .  S
C2087      C2088   1.406       .  A
C2087      C2092   1.405       .  A
C2087      H2094   1.084       .  S
C2088      C2089   1.418       .  A
C2089      C2090   1.401       .  A
C2089      N2096   1.433       .  S
C2090      C2091   1.398       .  A
C2090      H2095   1.082       .  S
C2091      C2092   1.413       .  A
C2092      N2093   1.432       .  S
N2093      H2097   1.046       .  S
N2093      H2098   1.046       .  S
N2096      H2099   1.046       .  S
N2096      H2100   1.045       .  S
C2101      C2102   1.412       .  A
C2101      C2106   1.409       .  A
C2101      H2108   1.083       .  S
C2102      C2103   1.418       .  A
C2103      C2104   1.416       .  A
C2103      N2110   1.432       .  S
C2104      C2105   1.406       .  A
C2104      H2109   1.082       .  S
C2105      C2106   1.414       .  A
C2106      N2107   1.432       .  S
N2107      H2111   1.045       .  S
N2107      H2112   1.046       .  S
N2110      H2113   1.046       .  S
N2110      H2114   1.045       .  S
C2115      C2116   1.406       .  A
C2115      C2120   1.412       .  A
C2115      H2122   1.084       .  S
C2116      C2117   1.427       .  A
C2117      C2118   1.411       .  A
C2117      N2124   1.438       .  S
C2118      C2119   1.402       .  A
C2118      H2123   1.084       .  S
C2119      C2120   1.416       .  A
C2120      N2121   1.432       .  S
N2121      H2125   1.046       .  S
N2121      H2126   1.045       .  S
N2124      H2127   1.041       .  S
N2124      H2128   1.046       .  S
C2129      C2130   1.409       .  A
C2129      C2134   1.393       .  A
C2129      H2136   1.084       .  S
C2130      C2131   1.413       .  A
C2131      C2132   1.408       .  A
C2131      N2138   1.437       .  S
C2132      C2133   1.403       .  A
C2132      H2137   1.084       .  S
C2133      C2134   1.409       .  A
C2134      N2135   1.440       .  S
N2135      H2139   1.046       .  S
N2135      H2140   1.043       .  S
N2138      H2141   1.045       .  S
N2138      H2142   1.046       .  S
C2143      C2144   1.401       .  A
C2143      C2148   1.405       .  A
C2143      H2150   1.084       .  S
C2144      C2145   1.407       .  A
C2145      C2146   1.397       .  A
C2145      N2152   1.431       .  S
C2146      C2147   1.406       .  A
C2146      H2151   1.084       .  S
C2147      C2148   1.412       .  A
C2148      N2149   1.437       .  S
N2149      H2153   1.046       .  S
N2149      H2154   1.046       .  S
N2152      H2155   1.045   1_556  S
N2152      H2156   1.045       .  S
C2157      C2158   1.407       .  A
C2157      C2162   1.394       .  A
C2157      H2164   1.084   1_556  S
C2158      C2159   1.413       .  A
C2159      C2160   1.416       .  A
C2159      N2166   1.437       .  S
C2160      C2161   1.407       .  A
C2160      H2165   1.082       .  S
C2161      C2162   1.402       .  A
C2162      N2163   1.433   1_556  S
N2163      H2167   1.046       .  S
N2163      H2168   1.045       .  S
N2166      H2169   1.046       .  S
N2166      H2170   1.046       .  S
C2171      C2172   1.412       .  A
C2171      C2176   1.401       .  A
C2171      H2178   1.076       .  S
C2172      C2173   1.420       .  A
C2173      C2174   1.405       .  A
C2173      N2180   1.433       .  S
C2174      C2175   1.398       .  A
C2174      H2179   1.084       .  S
C2175      C2176   1.412       .  A
C2176      N2177   1.433       .  S
N2177      H2181   1.046       .  S
N2177      H2182   1.044       .  S
N2180      H2183   1.045       .  S
N2180      H2184   1.046       .  S
C2185      C2186   1.403       .  A
C2185      C2190   1.409       .  A
C2185      H2192   1.084       .  S
C2186      C2187   1.404       .  A
C2187      C2188   1.403       .  A
C2187      N2194   1.437       .  S
C2188      C2189   1.407       .  A
C2188      H2193   1.084       .  S
C2189      C2190   1.411       .  A
C2190      N2191   1.437       .  S
N2191      H2195   1.046       .  S
N2191      H2196   1.045       .  S
N2194      H2197   1.046       .  S
N2194      H2198   1.046       .  S
C2199      C2200   1.398       .  A
C2199      C2204   1.402       .  A
C2199      H2206   1.082       .  S
C2200      C2201   1.414   1_554  A
C2201      C2202   1.397       .  A
C2201      N2208   1.434       .  S
C2202      C2203   1.407   1_556  A
C2202      H2207   1.084       .  S
C2203      C2204   1.425       .  A
C2204      N2205   1.432       .  S
N2205      H2209   1.045       .  S
N2205      H2210   1.045       .  S
N2208      H2211   1.045       .  S
N2208      H2212   1.043       .  S
C2213      C2214   1.402       .  A
C2213      C2218   1.402       .  A
C2213      H2220   1.083       .  S
C2214      C2215   1.409       .  A
C2215      C2216   1.397       .  A
C2215      N2222   1.433       .  S
C2216      C2217   1.399       .  A
C2216      H2221   1.083       .  S
C2217      C2218   1.412       .  A
C2218      N2219   1.432       .  S
N2219      H2223   1.045       .  S
N2219      H2224   1.046       .  S
N2222      H2225   1.046   1_554  S
N2222      H2226   1.045       .  S
C2227      C2228   1.418       .  A
C2227      C2232   1.406       .  A
C2227      H2234   1.081       .  S
C2228      C2229   1.415       .  A
C2229      C2230   1.400       .  A
C2229      N2236   1.431       .  S
C2230      C2231   1.403       .  A
C2230      H2235   1.084       .  S
C2231      C2232   1.405       .  A
C2232      N2233   1.433       .  S
N2233      H2237   1.046       .  S
N2233      H2238   1.046       .  S
N2236      H2239   1.045       .  S
N2236      H2240   1.046       .  S
C2241      C2242   1.404       .  A
C2241      C2246   1.409       .  A
C2241      H2248   1.084       .  S
C2242      C2243   1.422       .  A
C2243      C2244   1.401       .  A
C2243      N2250   1.434       .  S
C2244      C2245   1.393       .  A
C2244      H2249   1.081       .  S
C2245      C2246   1.413       .  A
C2246      N2247   1.432       .  S
N2247      H2251   1.045       .  S
N2247      H2252   1.046       .  S
N2250      H2253   1.046       .  S
N2250      H2254   1.046       .  S
C2255      C2256   1.408       .  A
C2255      C2260   1.415       .  A
C2255      H2262   1.083       .  S
C2256      C2257   1.423   1_565  A
C2257      C2258   1.414       .  A
C2257      N2264   1.437       .  S
C2258      C2259   1.400   1_545  A
C2258      H2263   1.080       .  S
C2259      C2260   1.415       .  A
C2260      N2261   1.437       .  S
N2261      H2265   1.046       .  S
N2261      H2266   1.045       .  S
N2264      H2267   1.046       .  S
N2264      H2268   1.046       .  S
C2269      C2270   1.408   1_545  A
C2269      C2274   1.417       .  A
C2269      H2276   1.084       .  S
C2270      C2271   1.415       .  A
C2271      C2272   1.415       .  A
C2271      N2278   1.437       .  S
C2272      C2273   1.407   1_565  A
C2272      H2277   1.084       .  S
C2273      C2274   1.423       .  A
C2274      N2275   1.438       .  S
N2275      H2279   1.045       .  S
N2275      H2280   1.043       .  S
N2278      H2281   1.045       .  S
N2278      H2282   1.045       .  S
C2283      C2284   1.405       .  A
C2283      C2288   1.415       .  A
C2283      H2290   1.082       .  S
C2284      C2285   1.404       .  A
C2285      C2286   1.397       .  A
C2285      N2292   1.433       .  S
C2286      C2287   1.408       .  A
C2286      H2291   1.084       .  S
C2287      C2288   1.413       .  A
C2288      N2289   1.436       .  S
N2289      H2293   1.046       .  S
N2289      H2294   1.045       .  S
N2292      H2295   1.046       .  S
N2292      H2296   1.045       .  S
C2297      C2298   1.411       .  A
C2297      C2302   1.403       .  A
C2297      H2304   1.073       .  S
C2298      C2299   1.427       .  A
C2299      C2300   1.393       .  A
C2299      N2306   1.436       .  S
C2300      C2301   1.402       .  A
C2300      H2305   1.084       .  S
C2301      C2302   1.414       .  A
C2302      N2303   1.439       .  S
N2303      H2307   1.046       .  S
N2303      H2308   1.046       .  S
N2306      H2309   1.042       .  S
N2306      H2310   1.042       .  S
C2311      C2312   1.397       .  A
C2311      C2316   1.397       .  A
C2311      H2318   1.084       .  S
C2312      C2313   1.410       .  A
C2313      C2314   1.407       .  A
C2313      N2320   1.438       .  S
C2314      C2315   1.404       .  A
C2314      H2319   1.084       .  S
C2315      C2316   1.415       .  A
C2316      N2317   1.432       .  S
N2317      H2321   1.044       .  S
N2317      H2322   1.046       .  S
N2320      H2323   1.045       .  S
N2320      H2324   1.046       .  S
C2325      C2326   1.400       .  A
C2325      C2330   1.394       .  A
C2325      H2332   1.081       .  S
C2326      C2327   1.412       .  A
C2327      C2328   1.407       .  A
C2327      N2334   1.437       .  S
C2328      C2329   1.400   1_554  A
C2328      H2333   1.084   1_554  S
C2329      C2330   1.408   1_556  A
C2330      N2331   1.440       .  S
N2331      H2335   1.045       .  S
N2331      H2336   1.044       .  S
N2334      H2337   1.045   1_564  S
N2334      H2338   1.046   1_565  S
C2339      C2340   1.401   1_554  A
C2339      C2344   1.398       .  A
C2339      H2346   1.084       .  S
C2340      C2341   1.409       .  A
C2341      C2342   1.396       .  A
C2341      N2348   1.433       .  S
C2342      C2343   1.399       .  A
C2342      H2347   1.084       .  S
C2343      C2344   1.407   1_556  A
C2344      N2345   1.433       .  S
N2345      H2349   1.046       .  S
N2345      H2350   1.046       .  S
N2348      H2351   1.046       .  S
N2348      H2352   1.046       .  S
C2353      C2354   1.406       .  A
C2353      C2358   1.406       .  A
C2353      H2360   1.084       .  S
C2354      C2355   1.426       .  A
C2355      C2356   1.395       .  A
C2355      N2362   1.432       .  S
C2356      C2357   1.397       .  A
C2356      H2361   1.084       .  S
C2357      C2358   1.413       .  A
C2358      N2359   1.432       .  S
N2359      H2363   1.045       .  S
N2359      H2364   1.046       .  S
N2362      H2365   1.045       .  S
N2362      H2366   1.045       .  S
C2367      C2368   1.413       .  A
C2367      C2372   1.429       .  A
C2367      H2374   1.083       .  S
C2368      C2369   1.413       .  A
C2369      C2370   1.399       .  A
C2369      N2376   1.434       .  S
C2370      C2371   1.410       .  A
C2370      H2375   1.082       .  S
C2371      C2372   1.416       .  A
C2372      N2373   1.436       .  S
N2373      H2377   1.046       .  S
N2373      H2378   1.046       .  S
N2376      H2379   1.045       .  S
N2376      H2380   1.043       .  S
C2381      C2382   1.408       .  A
C2381      C2386   1.410       .  A
C2381      H2388   1.084       .  S
C2382      C2383   1.408       .  A
C2383      C2384   1.403       .  A
C2383      N2390   1.432       .  S
C2384      C2385   1.416       .  A
C2384      H2389   1.083       .  S
C2385      C2386   1.411       .  A
C2386      N2387   1.430       .  S
N2387      H2391   1.045       .  S
N2387      H2392   1.045       .  S
N2390      H2393   1.046       .  S
N2390      H2394   1.045       .  S
C2395      C2396   1.406       .  A
C2395      C2400   1.416       .  A
C2395      H2402   1.083       .  S
C2396      C2397   1.410       .  A
C2397      C2398   1.405       .  A
C2397      N2404   1.438       .  S
C2398      C2399   1.403       .  A
C2398      H2403   1.084       .  S
C2399      C2400   1.411       .  A
C2400      N2401   1.437       .  S
N2401      H2405   1.046       .  S
N2401      H2406   1.046       .  S
N2404      H2407   1.046       .  S
N2404      H2408   1.046       .  S
C2409      C2410   1.398       .  A
C2409      C2414   1.404       .  A
C2409      H2416   1.084       .  S
C2410      C2411   1.422       .  A
C2411      C2412   1.404       .  A
C2411      N2418   1.439       .  S
C2412      C2413   1.401       .  A
C2412      H2417   1.084       .  S
C2413      C2414   1.418       .  A
C2414      N2415   1.433       .  S
N2415      H2419   1.046       .  S
N2415      H2420   1.046       .  S
N2418      H2421   1.042       .  S
N2418      H2422   1.046       .  S
C2423      C2424   1.398       .  A
C2423      C2428   1.401       .  A
C2423      H2430   1.084       .  S
C2424      C2425   1.410       .  A
C2425      C2426   1.407       .  A
C2425      N2432   1.437       .  S
C2426      C2427   1.404       .  A
C2426      H2431   1.084       .  S
C2427      C2428   1.415       .  A
C2428      N2429   1.433       .  S
N2429      H2433   1.046       .  S
N2429      H2434   1.046       .  S
N2432      H2435   1.046       .  S
N2432      H2436   1.046       .  S
C2437      C2438   1.407       .  A
C2437      C2442   1.417       .  A
C2437      H2444   1.084       .  S
C2438      C2439   1.411       .  A
C2439      C2440   1.394       .  A
C2439      N2446   1.434       .  S
C2440      C2441   1.405       .  A
C2440      H2445   1.085       .  S
C2441      C2442   1.411       .  A
C2442      N2443   1.436       .  S
N2443      H2447   1.046       .  S
N2443      H2448   1.045       .  S
N2446      H2449   1.042       .  S
N2446      H2450   1.044       .  S
C2451      C2452   1.412       .  A
C2451      C2456   1.407       .  A
C2451      H2458   1.080       .  S
C2452      C2453   1.420       .  A
C2453      C2454   1.401       .  A
C2453      N2460   1.432       .  S
C2454      C2455   1.400       .  A
C2454      H2459   1.084       .  S
C2455      C2456   1.409       .  A
C2456      N2457   1.433       .  S
N2457      H2461   1.046       .  S
N2457      H2462   1.046       .  S
N2460      H2463   1.046       .  S
N2460      H2464   1.046       .  S
C2465      C2466   1.402       .  A
C2465      C2470   1.411       .  A
C2465      H2472   1.084       .  S
C2466      C2467   1.410       .  A
C2467      C2468   1.407       .  A
C2467      N2474   1.432       .  S
C2468      C2469   1.405       .  A
C2468      H2473   1.083       .  S
C2469      C2470   1.419       .  A
C2470      N2471   1.433       .  S
N2471      H2475   1.046       .  S
N2471      H2476   1.045       .  S
N2474      H2477   1.046       .  S
N2474      H2478   1.045       .  S
C2479      C2480   1.400       .  A
C2479      C2484   1.403       .  A
C2479      H2486   1.084       .  S
C2480      C2481   1.416       .  A
C2481      C2482   1.423       .  A
C2481      N2488   1.437       .  S
C2482      C2483   1.409       .  A
C2482      H2487   1.083       .  S
C2483      C2484   1.413       .  A
C2484      N2485   1.433       .  S
N2485      H2489   1.046       .  S
N2485      H2490   1.046       .  S
N2488      H2491   1.045       .  S
N2488      H2492   1.046       .  S
C2493      C2494   1.403       .  A
C2493      C2498   1.409       .  A
C2493      H2500   1.084       .  S
C2494      C2495   1.412       .  A
C2495      C2496   1.413       .  A
C2495      N2502   1.437       .  S
C2496      C2497   1.404       .  A
C2496      H2501   1.084       .  S
C2497      C2498   1.412       .  A
C2498      N2499   1.438       .  S
N2499      H2503   1.046       .  S
N2499      H2504   1.046       .  S
N2502      H2505   1.045       .  S
N2502      H2506   1.046       .  S
C2507      C2508   1.395       .  A
C2507      C2512   1.400       .  A
C2507      H2514   1.084       .  S
C2508      C2509   1.402       .  A
C2509      C2510   1.397       .  A
C2509      N2516   1.434       .  S
C2510      C2511   1.412       .  A
C2510      H2515   1.075       .  S
C2511      C2512   1.420       .  A
C2512      N2513   1.433       .  S
N2513      H2517   1.045       .  S
N2513      H2518   1.046       .  S
N2516      H2519   1.046       .  S
N2516      H2520   1.046       .  S
C2521      C2522   1.402       .  A
C2521      C2526   1.395       .  A
C2521      H2528   1.085       .  S
C2522      C2523   1.422       .  A
C2523      C2524   1.412       .  A
C2523      N2530   1.438       .  S
C2524      C2525   1.404       .  A
C2524      H2529   1.084       .  S
C2525      C2526   1.412       .  A
C2526      N2527   1.431       .  S
N2527      H2531   1.044       .  S
N2527      H2532   1.043       .  S
N2530      H2533   1.043       .  S
N2530      H2534   1.046       .  S
C2535      C2536   1.405       .  A
C2535      C2540   1.407       .  A
C2535      H2542   1.084       .  S
C2536      C2537   1.414       .  A
C2537      C2538   1.397       .  A
C2537      N2544   1.433       .  S
C2538      C2539   1.399       .  A
C2538      H2543   1.082       .  S
C2539      C2540   1.410       .  A
C2540      N2541   1.432       .  S
N2541      H2545   1.045       .  S
N2541      H2546   1.046       .  S
N2544      H2547   1.046       .  S
N2544      H2548   1.046       .  S
C2549      C2550   1.407       .  A
C2549      C2554   1.393       .  A
C2549      H2556   1.083       .  S
C2550      C2551   1.421       .  A
C2551      C2552   1.398       .  A
C2551      N2558   1.432       .  S
C2552      C2553   1.400       .  A
C2552      H2557   1.082       .  S
C2553      C2554   1.405       .  A
C2554      N2555   1.433       .  S
N2555      H2559   1.045       .  S
N2555      H2560   1.046       .  S
N2558      H2561   1.046       .  S
N2558      H2562   1.044       .  S
C2563      C2564   1.407       .  A
C2563      C2568   1.413       .  A
C2563      H2570   1.083       .  S
C2564      C2565   1.408   1_565  A
C2565      C2566   1.409       .  A
C2565      N2572   1.431       .  S
C2566      C2567   1.411       .  A
C2566      H2571   1.083       .  S
C2567      C2568   1.422   1_545  A
C2568      N2569   1.438       .  S
N2569      H2573   1.046       .  S
N2569      H2574   1.046       .  S
N2572      H2575   1.045       .  S
N2572      H2576   1.046       .  S
C2577      C2578   1.416   1_545  A
C2577      C2582   1.410       .  A
C2577      H2584   1.076       .  S
C2578      C2579   1.419       .  A
C2579      C2580   1.407       .  A
C2579      N2586   1.433       .  S
C2580      C2581   1.402   1_565  A
C2580      H2585   1.084       .  S
C2581      C2582   1.415       .  A
C2582      N2583   1.439       .  S
N2583      H2587   1.046   1_645  S
N2583      H2588   1.043   1_655  S
N2586      H2589   1.046   1_565  S
N2586      H2590   1.046       .  S
C2591      C2592   1.408       .  A
C2591      C2596   1.422       .  A
C2591      H2598   1.083       .  S
C2592      C2593   1.412       .  A
C2593      C2594   1.391       .  A
C2593      N2600   1.433       .  S
C2594      C2595   1.405       .  A
C2594      H2599   1.083       .  S
C2595      C2596   1.416       .  A
C2596      N2597   1.436       .  S
N2597      H2601   1.045       .  S
N2597      H2602   1.046       .  S
N2600      H2603   1.045       .  S
N2600      H2604   1.042       .  S
C2605      C2606   1.418       .  A
C2605      C2610   1.410       .  A
C2605      H2612   1.078       .  S
C2606      C2607   1.419       .  A
C2607      C2608   1.412       .  A
C2607      N2614   1.432       .  S
C2608      C2609   1.406       .  A
C2608      H2613   1.084       .  S
C2609      C2610   1.413       .  A
C2610      N2611   1.433       .  S
N2611      H2615   1.046       .  S
N2611      H2616   1.045       .  S
N2614      H2617   1.046       .  S
N2614      H2618   1.045       .  S
C2619      C2620   1.403       .  A
C2619      C2624   1.410       .  A
C2619      H2626   1.084       .  S
C2620      C2621   1.407       .  A
C2621      C2622   1.408       .  A
C2621      N2628   1.437       .  S
C2622      C2623   1.408       .  A
C2622      H2627   1.082       .  S
C2623      C2624   1.415       .  A
C2624      N2625   1.432       .  S
N2625      H2629   1.046       .  S
N2625      H2630   1.046       .  S
N2628      H2631   1.045       .  S
N2628      H2632   1.046       .  S
C2633      C2634   1.404       .  A
C2633      C2638   1.400       .  A
C2633      H2640   1.084       .  S
C2634      C2635   1.418       .  A
C2635      C2636   1.406       .  A
C2635      N2642   1.439       .  S
C2636      C2637   1.404       .  A
C2636      H2641   1.083       .  S
C2637      C2638   1.407       .  A
C2638      N2639   1.432       .  S
N2639      H2643   1.045       .  S
N2639      H2644   1.045       .  S
N2642      H2645   1.043       .  S
N2642      H2646   1.046       .  S
C2647      C2648   1.407       .  A
C2647      C2652   1.418       .  A
C2647      H2654   1.084       .  S
C2648      C2649   1.413       .  A
C2649      C2650   1.410       .  A
C2649      N2656   1.439       .  S
C2650      C2651   1.409       .  A
C2650      H2655   1.083       .  S
C2651      C2652   1.415       .  A
C2652      N2653   1.431       .  S
N2653      H2657   1.045       .  S
N2653      H2658   1.045       .  S
N2656      H2659   1.045       .  S
N2656      H2660   1.046       .  S
C2661      C2662   1.409       .  A
C2661      C2666   1.390       .  A
C2661      H2668   1.075       .  S
C2662      C2663   1.432       .  A
C2663      C2664   1.404       .  A
C2663      N2670   1.439       .  S
C2664      C2665   1.399       .  A
C2664      H2669   1.084       .  S
C2665      C2666   1.411       .  A
C2666      N2667   1.433       .  S
N2667      H2671   1.044       .  S
N2667      H2672   1.045       .  S
N2670      H2673   1.040       .  S
N2670      H2674   1.046       .  S
C2675      C2676   1.405       .  A
C2675      C2680   1.410       .  A
C2675      H2682   1.084       .  S
C2676      C2677   1.422       .  A
C2677      C2678   1.415       .  A
C2677      N2684   1.438       .  S
C2678      C2679   1.407       .  A
C2678      H2683   1.084       .  S
C2679      C2680   1.413       .  A
C2680      N2681   1.432       .  S
N2681      H2685   1.045       .  S
N2681      H2686   1.046       .  S
N2684      H2687   1.044       .  S
N2684      H2688   1.045       .  S
