geometry optimzed in LAMMPS
_audit_creation_date              2020-11-30 
_audit_creation_method            'lammps2cif' 
_symmetry_space_group_name_H-M    'P1' 
_symmetry_Int_Tables_number       1 
_symmetry_cell_setting            triclinic 
loop_ 
_symmetry_equiv_pos_as_xyz 
  x,y,z 
_cell_length_a                    35.47131029 
_cell_length_b                    35.71850774572593 
_cell_length_c                    35.67632273738397 
_cell_angle_alpha                 89.99841346130447 
_cell_angle_beta                  90.07215692520835 
_cell_angle_gamma                 89.91569485100224 
loop_ 
_atom_site_label 
_atom_site_type_symbol 
_atom_site_fract_x 
_atom_site_fract_y 
_atom_site_fract_z 
_atom_site_charge 
N1          N  0.50044327  0.94279753  0.49981185    -0.35900
N2          N  0.49948401  0.00159684  0.55677023    -0.56400
N3          N  0.49811470  0.05720402  0.49686409    -0.35900
N4          N  0.49583514  0.99848184  0.44000404    -0.56400
C5          C  0.49605783  0.92184518  0.53112146     0.27700
C6          C  0.49356460  0.92025488  0.47006527     0.27700
C7          C  0.49245571  0.07958011  0.52700912     0.27700
C8          C  0.49104239  0.07795436  0.46584758     0.27700
C9          C  0.50501280  0.97181707  0.57959033     0.36300
C10         C  0.50362754  0.03270343  0.57804562     0.36300
C11         C  0.50001191  0.96747123  0.41859702     0.36300
C12         C  0.49969633  0.02836771  0.41700262     0.36300
C13         C  0.48687235  0.88543944  0.52103462    -0.21100
C14         C  0.48526997  0.88445319  0.48270503    -0.21100
C15         C  0.48199847  0.11502780  0.51488743    -0.21100
C16         C  0.48112442  0.11401258  0.47651153    -0.21100
C17         C  0.51197285  0.98404372  0.61581313    -0.22200
C18         C  0.51111438  0.02260798  0.61483397    -0.22200
C19         C  0.50588926  0.97769195  0.38158673    -0.22200
C20         C  0.50574228  0.01626625  0.38058485    -0.22200
C21         C  0.50195768  0.93379953  0.56856430    -0.17600
C22         C  0.49678153  0.93013788  0.43172468    -0.17600
C23         C  0.49574880  0.06630198  0.42811015    -0.17500
C24         C  0.49889572  0.06997140  0.56507170    -0.17500
H25         H  0.48219642  0.86170593  0.53928441     0.15400
H26         H  0.47920953  0.85981600  0.46612641     0.15400
H27         H  0.47622829  0.13951756  0.53178369     0.15400
H28         H  0.47457333  0.13759105  0.45861305     0.15400
H29         H  0.51685848  0.96696530  0.64041218     0.13600
H30         H  0.51519222  0.04107646  0.63854244     0.13600
H31         H  0.50967175  0.95928756  0.35778069     0.13600
H32         H  0.50930050  0.03342244  0.35583663     0.13600
H33         H  0.51159324  0.96953235  0.49871647     0.26900
H34         H  0.51053364  0.03096709  0.49726712     0.26900
N35         N  0.94245993  0.50315952  0.50108756    -0.35900
N36         N  0.99934962  0.44469301  0.49711323    -0.56400
N37         N  0.05760265  0.50254306  0.49980829    -0.35900
N38         N  0.00070598  0.56094754  0.50642037    -0.56400
C39         C  0.92058382  0.47247122  0.50600899     0.27700
C40         C  0.92122852  0.53344145  0.50983617     0.27700
C41         C  0.07916221  0.47140341  0.50306542     0.27700
C42         C  0.07984490  0.53231727  0.50775770     0.27700
C43         C  0.96847099  0.42317701  0.49152569     0.36300
C44         C  0.02978654  0.42288489  0.49032859     0.36300
C45         C  0.97013882  0.58340306  0.50300523     0.36300
C46         C  0.03146022  0.58307487  0.50290285     0.36300
C47         C  0.88494544  0.48358178  0.51761465    -0.21100
C48         C  0.88534476  0.52184100  0.51997942    -0.21100
C49         C  0.11564041  0.48164863  0.51276806    -0.21100
C50         C  0.11606352  0.51989658  0.51568916    -0.21100
C51         C  0.97935083  0.38726572  0.48151696    -0.22200
C52         C  0.01819399  0.38709081  0.48070382    -0.22200
C53         C  0.98152874  0.62019584  0.49814281    -0.22200
C54         C  0.02037523  0.61998771  0.49810248    -0.22200
C55         C  0.93083514  0.43489117  0.49801415    -0.17600
C56         C  0.93219335  0.57141103  0.50624394    -0.17600
C57         C  0.06933936  0.57056084  0.50545517    -0.17500
C58         C  0.06779589  0.43416289  0.49516318    -0.17500
H59         H  0.86064307  0.46617090  0.52306496     0.15400
H60         H  0.86145601  0.53904557  0.52765457     0.15400
H61         H  0.13985238  0.46360710  0.51668772     0.15400
H62         H  0.14061633  0.53659282  0.52228045     0.15400
H63         H  0.96123900  0.36355389  0.47590998     0.13600
H64         H  0.03587030  0.36320256  0.47433823     0.13600
H65         H  0.96372344  0.64466167  0.49524002     0.13600
H66         H  0.03837939  0.64423513  0.49506217     0.13600
H67         H  0.96856609  0.50382908  0.48812328     0.26900
H68         H  0.03074154  0.50367496  0.48849183     0.26900
N69         N  0.50244194  0.50167343  0.94376149    -0.35900
N70         N  0.44310604  0.50188616  0.00071403    -0.56400
N71         N  0.50128054  0.50354710  0.05861938    -0.35900
N72         N  0.56055477  0.49963395  0.00165507    -0.56400
C73         C  0.47171860  0.49595510  0.92194706     0.27700
C74         C  0.53321909  0.49473911  0.92240425     0.27700
C75         C  0.47030063  0.49893333  0.08030492     0.27700
C76         C  0.53182480  0.49851776  0.08085940     0.27700
C77         C  0.42119492  0.50617775  0.96993151     0.36300
C78         C  0.42048692  0.50635809  0.03092879     0.36300
C79         C  0.58336383  0.50193048  0.97135037     0.36300
C80         C  0.58280490  0.50297047  0.03231453     0.36300
C81         C  0.48319951  0.48572239  0.88620596    -0.21100
C82         C  0.52181951  0.48501065  0.88647824    -0.21100
C83         C  0.48144127  0.49160289  0.11689323    -0.21100
C84         C  0.52003542  0.49138459  0.11724810    -0.21100
C85         C  0.38425678  0.51297941  0.98064311    -0.22200
C86         C  0.38379248  0.51298075  0.01926545    -0.22200
C87         C  0.62048838  0.50588847  0.98284112    -0.22200
C88         C  0.62013895  0.50650308  0.02143524    -0.22200
C89         C  0.43361314  0.50182745  0.93239939    -0.17600
C90         C  0.57138989  0.49881280  0.93353101    -0.17600
C91         C  0.57016402  0.50147275  0.06999721    -0.17500
C92         C  0.43217187  0.50282644  0.06882215    -0.17500
H93         H  0.46566787  0.47980692  0.86208799     0.15400
H94         H  0.53938853  0.47842271  0.86260220     0.15400
H95         H  0.46371234  0.48725371  0.14115860     0.15400
H96         H  0.53735498  0.48670560  0.14179977     0.15400
H97         H  0.36008561  0.51702410  0.96253447     0.13600
H98         H  0.35922907  0.51716556  0.03674731     0.13600
H99         H  0.64526617  0.50780621  0.96527274     0.13600
H100        H  0.64459147  0.50907478  0.03942664     0.13600
H101        H  0.50245579  0.51387109  0.97007281     0.26900
H102        H  0.50164570  0.51314936  0.03129830     0.26900
N103        N  0.00281709  0.56028697  0.99885469    -0.35900
N104        N  0.99767743  0.50313283  0.05713686    -0.56400
N105        N  0.00026503  0.44544421  0.99941301    -0.35900
N106        N  0.00137445  0.50232264  0.94107482    -0.56400
C107        C  0.99643668  0.58224905  0.02910981     0.27700
C108        C  0.99834098  0.58187193  0.96799670     0.27700
C109        C  0.99297114  0.42417001  0.02990160     0.27700
C110        C  0.99457247  0.42368153  0.96890109     0.27700
C111        C  0.00219013  0.53352703  0.07924313     0.36300
C112        C  0.00145671  0.47280821  0.07952504     0.36300
C113        C  0.00625611  0.53245767  0.91870257     0.36300
C114        C  0.00503258  0.47172373  0.91904029     0.36300
C115        C  0.98856423  0.61844626  0.01735221    -0.21100
C116        C  0.98985193  0.61824286  0.97887769    -0.21100
C117        C  0.98312587  0.38832103  0.01862307    -0.21100
C118        C  0.98417595  0.38799666  0.98023511    -0.21100
C119        C  0.00829676  0.52244926  0.11601753    -0.22200
C120        C  0.00787489  0.48396899  0.11617924    -0.22200
C121        C  0.01232689  0.52093238  0.88207232    -0.22200
C122        C  0.01160683  0.48247399  0.88230734    -0.22200
C123        C  0.99916042  0.57114722  0.06712089    -0.17600
C124        C  0.00321288  0.57024452  0.93031846    -0.17600
C125        C  0.00040899  0.43428545  0.93114955    -0.17500
C126        C  0.99724698  0.43525185  0.06770768    -0.17500
H127        H  0.98272436  0.64263933  0.03468303     0.15400
H128        H  0.98521258  0.64231239  0.96102670     0.15400
H129        H  0.97631965  0.36457763  0.03618776     0.15400
H130        H  0.97831487  0.36392939  0.96277200     0.15400
H131        H  0.01246136  0.54023205  0.14023488     0.13600
H132        H  0.01154279  0.46625239  0.14053146     0.13600
H133        H  0.01644205  0.53838856  0.85762289     0.13600
H134        H  0.01503854  0.46451240  0.85811294     0.13600
H135        H  0.01338194  0.53327575  0.99934773     0.26900
H136        H  0.01268498  0.47165161  0.99959055     0.26900
N137        N  0.55724432  0.00146769  0.00017202    -0.35900
N138        N  0.49973936  0.94434777  0.00432555    -0.56400
N139        N  0.44198770  0.00303088  0.99921246    -0.35900
N140        N  0.49937539  0.06042880  0.99789936    -0.56400
C141        C  0.57891515  0.97113861  0.00795907     0.27700
C142        C  0.57888693  0.03219810  0.00530325     0.27700
C143        C  0.42047726  0.97299032  0.00767742     0.27700
C144        C  0.42018171  0.03384512  0.00377052     0.27700
C145        C  0.53002764  0.92161451  0.00069571     0.36300
C146        C  0.46893153  0.92250675  0.00056468     0.36300
C147        C  0.53032460  0.08186238  0.99263969     0.36300
C148        C  0.46896373  0.08258408  0.99168881     0.36300
C149        C  0.61487598  0.98274588  0.01770613    -0.21100
C150        C  0.61487920  0.02113884  0.01606910    -0.21100
C151        C  0.38449162  0.98481998  0.01730424    -0.21100
C152        C  0.38427523  0.02307678  0.01477733    -0.21100
C153        C  0.51840438  0.88498083  0.99529270    -0.22200
C154        C  0.47966258  0.88554086  0.99522273    -0.22200
C155        C  0.51948711  0.11809539  0.98361405    -0.22200
C156        C  0.48063363  0.11853772  0.98300652    -0.22200
C157        C  0.56794778  0.93319592  0.00433754    -0.17600
C158        C  0.56809538  0.06979538  0.99805844    -0.17600
C159        C  0.43092979  0.07125399  0.99615741    -0.17500
C160        C  0.43131191  0.93503674  0.00425784    -0.17500
H161        H  0.63888418  0.96539905  0.02480125     0.15400
H162        H  0.63902247  0.03877761  0.02160548     0.15400
H163        H  0.36048703  0.96770804  0.02472686     0.15400
H164        H  0.36004184  0.04074419  0.01994549     0.15400
H165        H  0.53596466  0.86037421  0.99216472     0.13600
H166        H  0.46149414  0.86142557  0.99205001     0.13600
H167        H  0.53766334  0.14184800  0.97844105     0.13600
H168        H  0.46301501  0.14264822  0.97731845     0.13600
H169        H  0.53082930  0.00115462  0.98777306     0.26900
H170        H  0.46830404  0.00212998  0.98666710     0.26900
O171        O  0.80513221  0.71546356  0.82046011    -0.77800
C172        C  0.71570397  0.80244674  0.84002351     0.83300
O173        O  0.69200571  0.67763188  0.75539751    -0.78900
O174        O  0.68816033  0.81003464  0.72036991    -0.80300
O175        O  0.81811159  0.80530423  0.71565098    -0.80100
O176        O  0.83992874  0.73189058  0.77134896    -0.78800
Zn177      Zn  0.75239875  0.73273874  0.80617321     1.55700
O178        O  0.77306511  0.84302832  0.73722888    -0.80200
Cd179      Cd  0.80179113  0.75342413  0.73445994     1.59700
Cd180      Cd  0.71723796  0.71965000  0.72278114     1.59600
O181        O  0.80550389  0.71910263  0.68968322    -0.80200
O182        O  0.75039186  0.75212008  0.75547655    -1.90700
Cd183      Cd  0.73291230  0.80515690  0.75633111     1.59900
O184        O  0.74910286  0.69368688  0.68037666    -0.80100
O185        O  0.71438608  0.82011528  0.80903632    -0.78800
C186        C  0.69670845  0.66923290  0.78994723     0.83800
C187        C  0.83662094  0.71639540  0.80326186     0.83400
O188        O  0.73112155  0.77027304  0.84263318    -0.77700
C189        C  0.80389207  0.83771339  0.71970626     0.84200
O190        O  0.71891373  0.68795302  0.81074959    -0.77800
C191        C  0.78390310  0.69721703  0.67179288     0.84400
C192        C  0.66908459  0.78831262  0.69937815     0.84700
O193        O  0.67598817  0.75319102  0.69745759    -0.80200
O194        O  0.16667717  0.73094567  0.76794498    -0.77800
C195        C  0.20298496  0.83890129  0.71548617     0.83300
O196        O  0.25539021  0.69776272  0.67412485    -0.78900
O197        O  0.32008861  0.81100921  0.72306320    -0.80300
O198        O  0.27332762  0.77198072  0.84131821    -0.80100
O199        O  0.20083525  0.71507497  0.81785219    -0.78800
Zn200      Zn  0.20262660  0.75502710  0.73147762     1.55700
O201        O  0.28731380  0.82274173  0.80824447    -0.80200
Cd202      Cd  0.25319168  0.73424799  0.80273645     1.59700
Cd203      Cd  0.28710340  0.72205748  0.71788642     1.59600
O204        O  0.28836278  0.68945529  0.80656508    -0.80200
O205        O  0.25357223  0.75401897  0.75083007    -1.90700
Cd206      Cd  0.27261751  0.80618919  0.75443533     1.59900
O207        O  0.31203500  0.67902608  0.74974340    -0.80100
O208        O  0.23519046  0.84291829  0.73069193    -0.78800
C209        C  0.22038292  0.70177120  0.66638201     0.83800
C210        C  0.16983614  0.71523089  0.79989468     0.83400
O211        O  0.18632986  0.80725098  0.71506680    -0.77700
C212        C  0.28669668  0.80494367  0.83917451     0.84200
O213        O  0.19944714  0.72285727  0.68611387    -0.77800
C214        C  0.30924662  0.67074102  0.78451733     0.84400
C215        C  0.33885670  0.79005003  0.70114224     0.84700
O216        O  0.32982143  0.75583853  0.69548712    -0.80200
O217        O  0.76816742  0.16493839  0.72242853    -0.77800
C218        C  0.71611959  0.19342779  0.82946320     0.83300
O219        O  0.67564424  0.25415997  0.68823472    -0.78900
O220        O  0.71643142  0.31140523  0.80726841    -0.80300
O221        O  0.84017777  0.27113051  0.76888647    -0.80100
O222        O  0.82024561  0.19735065  0.71093453    -0.78800
Zn223      Zn  0.73083292  0.19987994  0.74575509     1.55700
O224        O  0.80484855  0.28532784  0.81834326    -0.80200
Cd225      Cd  0.80352608  0.24951525  0.72982066     1.59700
Cd226      Cd  0.71867789  0.28466397  0.71579733     1.59600
O227        O  0.80878815  0.28449793  0.68507249    -0.80200
O228        O  0.75051290  0.25008097  0.74795830    -1.90700
Cd229      Cd  0.75183206  0.26637631  0.80149982     1.59900
O230        O  0.75261814  0.31043578  0.67491046    -0.80100
O231        O  0.73212959  0.22452746  0.83677503    -0.78800
C232        C  0.66777730  0.21928605  0.69069274     0.83800
C233        C  0.80132474  0.16714150  0.70902782     0.83400
O234        O  0.71327974  0.18095994  0.79615371    -0.77700
C235        C  0.83642442  0.28562454  0.80127663     0.84200
O236        O  0.68677632  0.19777499  0.71185672    -0.77800
C237        C  0.78755929  0.30662393  0.66681282     0.84400
C238        C  0.69694481  0.33223075  0.78563564     0.84700
O239        O  0.69486838  0.32611864  0.75031801    -0.80200
O240        O  0.23025846  0.27453837  0.65590694    -0.77800
C241        C  0.33620116  0.22144545  0.69153604     0.83300
O242        O  0.19335444  0.18154598  0.74523372    -0.78900
O243        O  0.30857512  0.22274731  0.80795115    -0.80300
O244        O  0.27065694  0.34512473  0.76503416    -0.80100
O245        O  0.21568616  0.32531557  0.68884408    -0.78800
Zn246      Zn  0.25148644  0.23664420  0.69209724     1.55700
O247        O  0.31976793  0.30986370  0.78108030    -0.80200
Cd248      Cd  0.23201685  0.30862010  0.74218021     1.59700
Cd249      Cd  0.21880499  0.22412313  0.77671719     1.59600
O250        O  0.18607012  0.31348801  0.77657046    -0.80200
O251        O  0.25106859  0.25609246  0.74292926    -1.90700
Cd252      Cd  0.30353250  0.25735183  0.76258408     1.59900
O253        O  0.17690156  0.25706629  0.80166290    -0.80100
O254        O  0.34056200  0.23652189  0.72361277    -0.78800
C255        C  0.19633099  0.17323436  0.71050036     0.83800
C256        C  0.21649773  0.30747977  0.65790365     0.83400
O257        O  0.30391142  0.21991817  0.67582159    -0.77700
C258        C  0.30283720  0.34133192  0.78047424     0.84200
O259        O  0.21745130  0.19200184  0.68865167    -0.77800
C260        C  0.16814974  0.29164988  0.79836349     0.84400
C261        C  0.28668393  0.20203337  0.82700398     0.84700
O262        O  0.25159363  0.19941884  0.81914119    -0.80200
O263        O  0.72881717  0.76865045  0.16661697    -0.77800
C264        C  0.83357057  0.71190319  0.20391729     0.83300
O265        O  0.69265162  0.67361909  0.25538433    -0.78900
O266        O  0.80715000  0.71973698  0.31926457    -0.80300
O267        O  0.76624971  0.83873802  0.27715308    -0.80100
O268        O  0.71336947  0.81846204  0.20070892    -0.78800
Zn269      Zn  0.74978999  0.73073669  0.20296281     1.53700
O270        O  0.81821380  0.80553299  0.28800718    -0.80200
Cd271      Cd  0.72921045  0.80124648  0.25355390     1.59700
Cd272      Cd  0.71715139  0.71653602  0.28755781     1.59600
O273        O  0.68225431  0.80399957  0.28597038    -0.80200
O274        O  0.74905834  0.74934470  0.25389074    -1.90700
Cd275      Cd  0.80178651  0.75203201  0.27259799     1.59900
O276        O  0.67344701  0.74820890  0.31226238    -0.80100
O277        O  0.83857353  0.72787994  0.23542190    -0.78800
C278        C  0.69506723  0.66699997  0.22022218     0.83800
C279        C  0.71442691  0.80125960  0.16949965     0.83400
O280        O  0.80152098  0.71190756  0.18771014    -0.77700
C281        C  0.79985716  0.83618404  0.28947386     0.84200
O282        O  0.71555118  0.68698421  0.19898556    -0.77800
C283        C  0.66396914  0.78250633  0.30768302     0.84400
C284        C  0.78621007  0.69784492  0.33800414     0.84700
O285        O  0.75140008  0.69307648  0.32972921    -0.80200
O286        O  0.28413178  0.81947632  0.20056127    -0.77800
C287        C  0.19539706  0.83570205  0.28600580     0.83300
O288        O  0.32055819  0.74895159  0.30957218    -0.78900
O289        O  0.18704706  0.71678061  0.31290269    -0.80300
O290        O  0.19566044  0.71705400  0.17948296    -0.80100
O291        O  0.27202698  0.77090286  0.16361149    -0.78800
Zn292      Zn  0.26548771  0.80176203  0.25081643     1.55700
O293        O  0.15705968  0.73400959  0.22585351    -0.80200
Cd294      Cd  0.24792548  0.73252956  0.19860944     1.59700
Cd295      Cd  0.27845100  0.71695364  0.28328120     1.59600
O296        O  0.28125703  0.68645011  0.19419303    -0.80200
O297        O  0.24665564  0.75103556  0.25077467    -1.90700
Cd298      Cd  0.19306466  0.75223182  0.26777888     1.59900
O299        O  0.30405510  0.67418015  0.25092257    -0.80100
O300        O  0.17697411  0.80510783  0.28611628    -0.78800
C301        C  0.32804265  0.78383692  0.30638669     0.83800
C302        C  0.28587614  0.80329630  0.16885959     0.83400
O303        O  0.22827966  0.83769394  0.27201272    -0.77700
C304        C  0.16287975  0.71969241  0.19362817     0.84200
O305        O  0.30897598  0.80489238  0.28489519    -0.77800
C306        C  0.30162335  0.66678610  0.21586790     0.84400
C307        C  0.20892767  0.69609653  0.33231499     0.84700
O308        O  0.24406532  0.69305181  0.32467849    -0.80200
O309        O  0.71309652  0.18281134  0.19419172    -0.77800
C310        C  0.80146739  0.16629129  0.28341669     0.83300
O311        O  0.67175813  0.24826147  0.30619068    -0.78900
O312        O  0.80382180  0.28339994  0.31544345    -0.80300
O313        O  0.80314418  0.28705512  0.18205786    -0.80100
O314        O  0.72909112  0.23203091  0.15978878    -0.78800
Zn315      Zn  0.72968112  0.19768160  0.24732538     1.55700
O316        O  0.83799123  0.27404888  0.23223835    -0.80200
Cd317      Cd  0.75015894  0.26911341  0.19819374     1.59700
Cd318      Cd  0.71469774  0.28171712  0.28317438     1.59600
O319        O  0.71600485  0.31446611  0.19457809    -0.80200
O320        O  0.74774678  0.24917549  0.25003473    -1.90700
Cd321      Cd  0.80020304  0.25038846  0.26933803     1.59900
O322        O  0.69016397  0.32450969  0.25056312    -0.80100
O323        O  0.81706283  0.19818850  0.28628274    -0.78800
C324        C  0.66406848  0.21353300  0.30170580     0.83800
C325        C  0.71429813  0.19976323  0.16268365     0.83400
O326        O  0.76941040  0.16180391  0.26772648    -0.77700
C327        C  0.83445014  0.28783854  0.19950126     0.84200
O328        O  0.68403938  0.19276118  0.28045452    -0.77800
C329        C  0.69438158  0.33308561  0.21598084     0.84400
C330        C  0.78194473  0.30385252  0.33472057     0.84700
O331        O  0.74679326  0.30653959  0.32682217    -0.80200
N332        N  0.99982913  0.99628103  0.55772847    -0.35900
N333        N  0.94235777  0.99994114  0.49874794    -0.56400
N334        N  0.00216379  0.00457233  0.44293309    -0.35900
N335        N  0.05968455  0.00056198  0.50189558    -0.56400
C336        C  0.96847273  0.99954791  0.57910424     0.27700
C337        C  0.02992409  0.00105895  0.58069846     0.27700
C338        C  0.97195566  0.00113586  0.41988158     0.27700
C339        C  0.03342982  0.00060666  0.42154906     0.27700
C340        C  0.91901438  0.99817600  0.52861555     0.36300
C341        C  0.92031074  0.00170431  0.46785129     0.36300
C342        C  0.08170979  0.99973309  0.53283429     0.36300
C343        C  0.08300738  0.00136830  0.47199248     0.36300
C344        C  0.97887934  0.00530032  0.61618165    -0.21100
C345        C  0.01744055  0.00623436  0.61717789    -0.21100
C346        C  0.98425638  0.99581805  0.38337742    -0.21100
C347        C  0.02286355  0.99547082  0.38441138    -0.21100
C348        C  0.88182867  0.99865043  0.51660720    -0.22200
C349        C  0.88264569  0.00100750  0.47816778    -0.22200
C350        C  0.11937910  0.99977887  0.52252023    -0.22200
C351        C  0.12020331  0.00081854  0.48400251    -0.22200
C352        C  0.93052201  0.99786965  0.56666264    -0.17600
C353        C  0.06849931  0.00068138  0.57027776    -0.17600
C354        C  0.07141412  0.00176256  0.43397112    -0.17500
C355        C  0.93344144  0.00252294  0.43036180    -0.17500
H356        H  0.96061551  0.00896635  0.64018788     0.15400
H357        H  0.03428933  0.01057209  0.64210602     0.15400
H358        H  0.96720938  0.99213024  0.35846906     0.15400
H359        H  0.04103807  0.99153827  0.36038118     0.15400
H360        H  0.85669988  0.99779241  0.53376320     0.13600
H361        H  0.85826315  0.00184942  0.45991165     0.13600
H362        H  0.14374055  0.99949332  0.54082042     0.13600
H363        H  0.14532970  0.00108695  0.46682101     0.13600
H364        H  0.00059271  0.98852411  0.52979229     0.26900
H365        H  0.00155377  0.01218176  0.47091436     0.26900
C366        C  0.13685072  0.03704127  0.35814835     0.03900
C367        C  0.11189794  0.03655997  0.38858640    -0.12300
C368        C  0.10076974  0.00229755  0.40445648     0.01400
C369        C  0.11430733  0.96848520  0.38948494    -0.10800
C370        C  0.13896577  0.96883139  0.35878673     0.03900
C371        C  0.14991476  0.00314306  0.34330830    -0.10200
H372        H  0.10108241  0.06262745  0.39983143     0.09500
H373        H  0.10515705  0.94208341  0.40133240     0.07000
H374        H  0.16834943  0.00350724  0.31908611     0.06800
O375        O  0.26943856  0.23162577  0.15676558    -0.77800
C376        C  0.16466506  0.28496658  0.18803028     0.83300
O377        O  0.30812974  0.32379647  0.24528108    -0.78900
O378        O  0.18934088  0.28859950  0.30381562    -0.80300
O379        O  0.22570237  0.16298236  0.26621312    -0.80100
O380        O  0.27995686  0.17989976  0.18963381    -0.78800
Zn381      Zn  0.24883527  0.27001978  0.19235381     1.55700
O382        O  0.17685358  0.19901155  0.28156570    -0.80200
Cd383      Cd  0.26452980  0.19804365  0.24230373     1.59700
Cd384      Cd  0.28093656  0.28180270  0.27661839     1.59600
O385        O  0.31090150  0.19219516  0.27540503    -0.80200
O386        O  0.24734150  0.25090590  0.24286107    -1.90700
Cd387      Cd  0.19400528  0.25078331  0.26071916     1.59900
O388        O  0.32186040  0.24730762  0.30233976    -0.80100
O389        O  0.15779922  0.26878773  0.21908321    -0.78800
C390        C  0.30494348  0.33213531  0.21054851     0.83800
C391        C  0.28114707  0.19795127  0.15891720     0.83400
O392        O  0.19792091  0.28806812  0.17508697    -0.77700
C393        C  0.19367885  0.16744987  0.28164848     0.84200
O394        O  0.28332705  0.31363409  0.18904443    -0.77800
C395        C  0.32977254  0.21261006  0.29770047     0.84400
C396        C  0.21197188  0.30827834  0.32335923     0.84700
O397        O  0.24751153  0.30822988  0.31722786    -0.80200
C398        C  0.03249364  0.35604201  0.12876831     0.03900
C399        C  0.03187814  0.38731266  0.10494278    -0.12300
C400        C  0.99768424  0.40508758  0.09619251     0.01400
C401        C  0.96377002  0.39137563  0.11111708    -0.10800
C402        C  0.96423021  0.36044927  0.13531951     0.03900
C403        C  0.99856119  0.34327250  0.14428474    -0.10200
H404        H  0.05778500  0.39728086  0.09236314     0.09500
H405        H  0.93722404  0.40440772  0.10354460     0.07000
H406        H  0.99870962  0.31976656  0.16349890     0.06800
C407        C  0.35036379  0.13067210  0.95834590     0.03900
C408        C  0.33405473  0.14272043  0.99190561    -0.12300
C409        C  0.35094450  0.13497435  0.02656313     0.01400
C410        C  0.38392202  0.11315877  0.02767122    -0.10800
C411        C  0.40009321  0.09960744  0.99432271     0.03900
C412        C  0.38355903  0.10899425  0.95966046    -0.10200
H413        H  0.30851877  0.15937213  0.99097228     0.09500
H414        H  0.39667519  0.10610167  0.05437220     0.07000
H415        H  0.39597946  0.09871011  0.93390396     0.06800
C416        C  0.53052548  0.14528479  0.36594189     0.03900
C417        C  0.53028016  0.11274917  0.38820597    -0.12300
C418        C  0.49599435  0.09629751  0.39908740     0.01400
C419        C  0.46183008  0.11208775  0.38676311    -0.10800
C420        C  0.46176686  0.14504405  0.36523121     0.03900
C421        C  0.49615692  0.16144505  0.35509692    -0.10200
H422        H  0.55665086  0.10088411  0.39798461     0.09500
H423        H  0.43534825  0.09972218  0.39541661     0.07000
H424        H  0.49617760  0.18622767  0.33755049     0.06800
C425        C  0.86390351  0.96831788  0.35725775     0.03900
C426        C  0.89025108  0.96851797  0.38657808    -0.12300
C427        C  0.90504644  0.00253517  0.39968751     0.01400
C428        C  0.89406581  0.03637465  0.38266753    -0.10800
C429        C  0.86768064  0.03638770  0.35314177     0.03900
C430        C  0.85278815  0.00218149  0.34093241    -0.10200
H431        H  0.89908020  0.94239125  0.39932357     0.09500
H432        H  0.90644086  0.06240640  0.39217035     0.07000
H433        H  0.83218063  0.00177004  0.31848570     0.06800
C434        C  0.64807561  0.12948967  0.96087538     0.03900
C435        C  0.66264393  0.14380408  0.99456839    -0.12300
C436        C  0.64596365  0.13543621  0.02925821     0.01400
C437        C  0.61375166  0.11261524  0.02997930    -0.10800
C438        C  0.59885854  0.09791254  0.99656682     0.03900
C439        C  0.61596768  0.10650373  0.96212748    -0.10200
H440        H  0.68707811  0.16192497  0.99379481     0.09500
H441        H  0.60042872  0.10583518  0.05642317     0.07000
H442        H  0.60478806  0.09453696  0.93651941     0.06800
C443        C  0.63215550  0.46671252  0.14901415     0.03900
C444        C  0.61056981  0.46732989  0.11604934    -0.12300
C445        C  0.59844631  0.50146417  0.10078035     0.01400
C446        C  0.60845445  0.53518525  0.11847173    -0.10800
C447        C  0.63060920  0.53495938  0.15130346     0.03900
C448        C  0.64242904  0.50047024  0.16610539    -0.10200
H449        H  0.60182400  0.44127036  0.10315001     0.09500
H450        H  0.59802937  0.56141563  0.10723755     0.07000
H451        H  0.66059772  0.49972415  0.19052550     0.06800
C452        C  0.84966864  0.37317654  0.46552584     0.03900
C453        C  0.83474891  0.36226045  0.50021436    -0.12300
C454        C  0.85191839  0.37310245  0.53388589     0.01400
C455        C  0.88499186  0.39463715  0.53278084    -0.10800
C456        C  0.90002432  0.40653431  0.49836363     0.03900
C457        C  0.88244149  0.39547234  0.46478271    -0.10200
H458        H  0.81033778  0.34407240  0.50105579     0.09500
H459        H  0.89811779  0.40362205  0.55871013     0.07000
H460        H  0.89373581  0.40495899  0.43823044     0.06800
C461        C  0.36982728  0.46678627  0.14728229     0.03900
C462        C  0.39171155  0.46786229  0.11441994    -0.12300
C463        C  0.40325114  0.50223499  0.09907325     0.01400
C464        C  0.39211562  0.53577701  0.11639849    -0.10800
C465        C  0.36988162  0.53517083  0.14904787     0.03900
C466        C  0.35883569  0.50060717  0.16410772    -0.10200
H467        H  0.40119939  0.44199250  0.10164315     0.09500
H468        H  0.40163818  0.56226233  0.10504253     0.07000
H469        H  0.34052227  0.50007645  0.18838545     0.06800
C470        C  0.03115862  0.64863109  0.13251624     0.03900
C471        C  0.03139765  0.62056870  0.10483411    -0.12300
C472        C  0.99830934  0.60094674  0.09601521     0.01400
C473        C  0.96425833  0.61052734  0.11356651    -0.10800
C474        C  0.96359217  0.63854411  0.14107588     0.03900
C475        C  0.99722989  0.65636847  0.15118498    -0.10200
H476        H  0.05707455  0.61398138  0.08981554     0.09500
H477        H  0.93843552  0.59638272  0.10566620     0.07000
H478        H  0.99658745  0.67694204  0.17341592     0.06800
C479        C  0.35584045  0.87009135  0.04033095     0.03900
C480        C  0.33980334  0.85787547  0.00665493    -0.12300
C481        C  0.35435480  0.86930897  0.97203458     0.01400
C482        C  0.38498846  0.89410630  0.97139558    -0.10800
C483        C  0.40087635  0.90690259  0.00510568     0.03900
C484        C  0.38635153  0.89479930  0.03958270    -0.10200
H485        H  0.31590536  0.83899668  0.00751934     0.09500
H486        H  0.39677082  0.90318669  0.94491486     0.07000
H487        H  0.39886776  0.90445802  0.06556535     0.06800
C488        C  0.46110703  0.84960336  0.37227361     0.03900
C489        C  0.49520885  0.83241185  0.36224783    -0.12300
C490        C  0.52983412  0.84779098  0.37315563     0.01400
C491        C  0.53017536  0.88102234  0.39433893    -0.10800
C492        C  0.49631457  0.89877423  0.40429605     0.03900
C493        C  0.46185181  0.88314502  0.39290148    -0.10200
H494        H  0.49481663  0.80766774  0.34467806     0.09500
H495        H  0.55673045  0.89269496  0.40376443     0.07000
H496        H  0.43568095  0.89629034  0.40144116     0.06800
C497        C  0.15152856  0.63127626  0.53681725     0.03900
C498        C  0.16671817  0.64138929  0.50198984    -0.12300
C499        C  0.14889129  0.63088098  0.46844632     0.01400
C500        C  0.11578823  0.60934028  0.47000487    -0.10800
C501        C  0.10055779  0.59841083  0.50461319     0.03900
C502        C  0.11819300  0.60997176  0.53799608    -0.10200
H503        H  0.19158598  0.65896384  0.50106329     0.09500
H504        H  0.10238747  0.60020328  0.44427064     0.07000
H505        H  0.10658618  0.60150709  0.56476548     0.06800
C506        C  0.64272578  0.86492766  0.97060195     0.03900
C507        C  0.61313312  0.89112746  0.97057406    -0.12300
C508        C  0.59808607  0.90419483  0.00464378     0.01400
C509        C  0.61251154  0.89056541  0.03882612    -0.10800
C510        C  0.64195706  0.86420354  0.03889516     0.03900
C511        C  0.65720913  0.85235961  0.00481614    -0.10200
H512        H  0.60162219  0.90116761  0.94428309     0.09500
H513        H  0.60080117  0.90037682  0.06509080     0.07000
H514        H  0.68093909  0.83318377  0.00495404     0.06800
C515        C  0.14704164  0.37500117  0.45558786     0.03900
C516        C  0.11459792  0.39751430  0.45773887    -0.12300
C517        C  0.09821325  0.40564054  0.49259310     0.01400
C518        C  0.11406660  0.39066409  0.52545944    -0.10800
C519        C  0.14677171  0.36844683  0.52378228     0.03900
C520        C  0.16324444  0.36127488  0.48873823    -0.10200
H521        H  0.10262979  0.40949744  0.43247471     0.09500
H522        H  0.10139757  0.39716336  0.55230690     0.07000
H523        H  0.18867893  0.34453488  0.48714172     0.06800
C524        C  0.96767013  0.35803608  0.86488800     0.03900
C525        C  0.00238984  0.34252301  0.85427629    -0.12300
C526        C  0.03652794  0.35711655  0.86766072     0.01400
C527        C  0.03563825  0.38786254  0.89222146    -0.10800
C528        C  0.00108493  0.40389569  0.90283908     0.03900
C529        C  0.96714398  0.38895295  0.88912255    -0.10200
H530        H  0.00277012  0.31899913  0.83509508     0.09500
H531        H  0.06161838  0.39890357  0.90373736     0.07000
H532        H  0.94052259  0.40125205  0.89753156     0.06800
C533        C  0.13105010  0.03819528  0.64834140     0.03900
C534        C  0.10664082  0.03683604  0.61723635    -0.12300
C535        C  0.09667107  0.00230505  0.60110275     0.01400
C536        C  0.11129390  0.96896736  0.61597320    -0.10800
C537        C  0.13590107  0.96987914  0.64677430     0.03900
C538        C  0.14558679  0.00454589  0.66266564    -0.10200
H539        H  0.09481574  0.06245784  0.60595131     0.09500
H540        H  0.10366861  0.94245300  0.60332856     0.07000
H541        H  0.16507380  0.00530910  0.68605619     0.06800
C542        C  0.53675145  0.15136339  0.62220159     0.03900
C543        C  0.53536662  0.11804195  0.60123798    -0.12300
C544        C  0.50049512  0.10150020  0.59236028     0.01400
C545        C  0.46696259  0.11788885  0.60563013    -0.10800
C546        C  0.46817125  0.15096626  0.62693664     0.03900
C547        C  0.50309757  0.16785201  0.63423926    -0.10200
H548        H  0.56126156  0.10545844  0.59117168     0.09500
H549        H  0.44008149  0.10512188  0.59897622     0.07000
H550        H  0.50421299  0.19348886  0.65047174     0.06800
C551        C  0.36849608  0.47030408  0.85403795     0.03900
C552        C  0.36082693  0.50477519  0.83676972    -0.12300
C553        C  0.37429250  0.53836626  0.85177500     0.01400
C554        C  0.39698262  0.53729514  0.88409653    -0.10800
C555        C  0.40547840  0.50300367  0.90148591     0.03900
C556        C  0.39087963  0.46956288  0.88658608    -0.10200
H557        H  0.34347625  0.50555825  0.81175708     0.09500
H558        H  0.40866075  0.56297212  0.89533321     0.07000
H559        H  0.39737137  0.44317310  0.90010704     0.06800
C560        C  0.86259215  0.03473034  0.63944872     0.03900
C561        C  0.88699463  0.03326640  0.60863847    -0.12300
C562        C  0.90110007  0.99872297  0.59616406     0.01400
C563        C  0.89095158  0.96559647  0.61486629    -0.10800
C564        C  0.86660919  0.96683267  0.64594570     0.03900
C565        C  0.85231585  0.00150581  0.65758466    -0.10200
H566        H  0.89540958  0.05886567  0.59467354     0.09500
H567        H  0.90282123  0.93914145  0.60579880     0.07000
H568        H  0.83284277  0.00276975  0.68092726     0.06800
C569        C  0.03896953  0.64238266  0.86123435     0.03900
C570        C  0.00489678  0.65744421  0.84836932    -0.12300
C571        C  0.97021216  0.64345426  0.86077459     0.01400
C572        C  0.96985998  0.61448226  0.88733404    -0.10800
C573        C  0.00386393  0.59971107  0.90111866     0.03900
C574        C  0.03841104  0.61361175  0.88797101    -0.10200
H575        H  0.00552384  0.68079883  0.82898347     0.09500
H576        H  0.94330552  0.60341318  0.89738985     0.07000
H577        H  0.06461310  0.60190040  0.89836182     0.06800
C578        C  0.47029976  0.85643708  0.63347640     0.03900
C579        C  0.50459063  0.83895281  0.64159464    -0.12300
C580        C  0.53860249  0.85375261  0.62837544     0.01400
C581        C  0.53787669  0.88629126  0.60608302    -0.10800
C582        C  0.50346139  0.90395287  0.59755991     0.03900
C583        C  0.46976298  0.88924397  0.61190735    -0.10200
H584        H  0.50476903  0.81449496  0.65958952     0.09500
H585        H  0.56387264  0.89739483  0.59471130     0.07000
H586        H  0.44308782  0.90231110  0.60483693     0.06800
C587        C  0.63536878  0.46566576  0.85496771     0.03900
C588        C  0.61241216  0.46549486  0.88707034    -0.12300
C589        C  0.60011284  0.49924356  0.90313838     0.01400
C590        C  0.61114535  0.53343422  0.88709512    -0.10800
C591        C  0.63419502  0.53413538  0.85500540     0.03900
C592        C  0.64631403  0.50007514  0.83940998    -0.10200
H593        H  0.60271319  0.43919102  0.89868429     0.09500
H594        H  0.60077661  0.55940486  0.89895441     0.07000
H595        H  0.66507657  0.50028949  0.81547216     0.06800
C596        C  0.85294188  0.63366244  0.47130857     0.03900
C597        C  0.88553616  0.61121034  0.47183785    -0.12300
C598        C  0.90144015  0.59973650  0.50602766     0.01400
C599        C  0.88459943  0.61088003  0.53983778    -0.10800
C600        C  0.85179411  0.63305192  0.53967110     0.03900
C601        C  0.83676308  0.64488516  0.50531627    -0.10200
H602        H  0.89785971  0.60166842  0.44574522     0.09500
H603        H  0.89619093  0.60090495  0.56612750     0.07000
H604        H  0.81275568  0.66366755  0.50501343     0.06800
C605        C  0.20255341  0.36505033  0.41319089    -0.20600
C606        C  0.16334267  0.36385089  0.41896817    -0.08600
C607        C  0.14031451  0.34803853  0.39115919     0.30300
C608        C  0.15640873  0.33170876  0.35944404    -0.20600
C609        C  0.19581918  0.33064734  0.35463931    -0.08600
C610        C  0.21874059  0.34882671  0.38127298     0.30300
F611        F  0.25679500  0.34963222  0.37744976    -0.19100
H612        H  0.22079585  0.37758059  0.43406826     0.18600
H613        H  0.13782465  0.31849993  0.33931085     0.18600
F614        F  0.10240843  0.34584739  0.39586124    -0.19100
C615        C  0.34283538  0.39122883  0.21763429    -0.20600
C616        C  0.32559604  0.36455467  0.19431331    -0.08600
C617        C  0.32627922  0.37041291  0.15512430     0.30300
C618        C  0.34183473  0.40302813  0.14011754    -0.20600
C619        C  0.35721955  0.43056162  0.16354095    -0.08600
C620        C  0.35852987  0.42389176  0.20248539     0.30300
F621        F  0.37486022  0.44902325  0.22595080    -0.19100
H622        H  0.34325499  0.38735997  0.24773862     0.18600
H623        H  0.34060403  0.40734895  0.11008632     0.18600
F624        F  0.31124251  0.34503516  0.13105969    -0.19100
C625        C  0.40105080  0.13997564  0.33070512    -0.20600
C626        C  0.42603597  0.16179571  0.35172746    -0.08600
C627        C  0.41799306  0.20001638  0.35716947     0.30300
C628        C  0.38613846  0.21631771  0.34051573    -0.20600
C629        C  0.36189302  0.19485667  0.31794526    -0.08600
C630        C  0.36943679  0.15612169  0.31385608     0.30300
F631        F  0.34690962  0.13368295  0.29283058    -0.19100
H632        H  0.40682420  0.11053240  0.32611649     0.18600
H633        H  0.38095820  0.24591798  0.34462484     0.18600
F634        F  0.44111188  0.22160544  0.37841521    -0.19100
C635        C  0.30415788  0.20275438  0.09332726    -0.20600
C636        C  0.29804719  0.18049761  0.12518379    -0.08600
C637        C  0.31044404  0.14292482  0.12478341     0.30300
C638        C  0.32816094  0.12821806  0.09289905    -0.20600
C639        C  0.33395391  0.15067450  0.06110171    -0.08600
C640        C  0.32211827  0.18826384  0.06187443     0.30300
F641        F  0.32872674  0.21145326  0.03245941    -0.19100
H642        H  0.29570923  0.23190205  0.09286418     0.18600
H643        H  0.33688390  0.09914271  0.09284838     0.18600
F644        F  0.30554904  0.12037344  0.15501158    -0.19100
C645        C  0.09986030  0.35870249  0.14913498    -0.20600
C646        C  0.06841902  0.33722219  0.13868247    -0.08600
C647        C  0.07078659  0.29784716  0.14063540     0.30300
C648        C  0.10279590  0.28068056  0.15572160    -0.20600
C649        C  0.13332331  0.30237812  0.16770493    -0.08600
C650        C  0.13220713  0.34141655  0.16333286     0.30300
F651        F  0.16136681  0.36295840  0.17523423    -0.19100
H652        H  0.09873452  0.38898695  0.14803040     0.18600
H653        H  0.10358520  0.25049023  0.15856266     0.18600
F654        F  0.04200463  0.27599772  0.12840151    -0.19100
C655        C  0.12499146  0.09870856  0.32631949    -0.20600
C656        C  0.15031539  0.07244763  0.34150877    -0.08600
C657        C  0.18920923  0.07849024  0.33793928     0.30300
C658        C  0.20256442  0.10937408  0.31833203    -0.20600
C659        C  0.17755764  0.13526361  0.30213093    -0.08600
C660        C  0.13847916  0.13008281  0.30675954     0.30300
F661        F  0.11346840  0.15435323  0.29122869    -0.19100
H662        H  0.09488122  0.09424404  0.32857045     0.18600
H663        H  0.23277632  0.11315410  0.31602655     0.18600
F664        F  0.21438285  0.05429609  0.35337925    -0.19100
C665        C  0.85461543  0.34272361  0.40289737    -0.20600
C666        C  0.83195875  0.35922302  0.43041337    -0.08600
C667        C  0.79249668  0.35949289  0.42528026     0.30300
C668        C  0.77620843  0.34232057  0.39380002    -0.20600
C669        C  0.79888898  0.32446384  0.36692528    -0.08600
C670        C  0.83852780  0.32554417  0.37161965     0.30300
F671        F  0.86213342  0.30953666  0.34631079    -0.19100
H672        H  0.88496833  0.34193215  0.40625613     0.18600
H673        H  0.74581747  0.34235915  0.39088100     0.18600
F674        F  0.76966011  0.37630050  0.45074454    -0.19100
C675        C  0.68006379  0.37321226  0.16063763    -0.20600
C676        C  0.67485911  0.36582648  0.19913639    -0.08600
C677        C  0.65289749  0.39083898  0.22042857     0.30300
C678        C  0.63822255  0.42326467  0.20374365    -0.20600
C679        C  0.64474150  0.43094785  0.16562926    -0.08600
C680        C  0.66527114  0.40532191  0.14407368     0.30300
F681        F  0.67279139  0.41230148  0.10742501    -0.19100
H682        H  0.69657647  0.35457578  0.14320529     0.18600
H683        H  0.62212719  0.44271689  0.22068284     0.18600
F684        F  0.64631226  0.38458296  0.25736058    -0.19100
C685        C  0.68513284  0.14512977  0.12853749    -0.20600
C686        C  0.69707841  0.18268836  0.12865679    -0.08600
C687        C  0.69109418  0.20442027  0.09612373     0.30300
C688        C  0.67385876  0.18891500  0.06462145    -0.20600
C689        C  0.66236910  0.15135158  0.06422116    -0.08600
C690        C  0.66811225  0.12948204  0.09662429     0.30300
F691        F  0.65844359  0.09273563  0.09711277    -0.19100
H692        H  0.68928240  0.12771044  0.15304621     0.18600
H693        H  0.66929150  0.20658639  0.04035435     0.18600
F694        F  0.70123602  0.24102871  0.09465269    -0.19100
C695        C  0.82806730  0.13424694  0.33906018    -0.20600
C696        C  0.82054935  0.13405915  0.30044595    -0.08600
C697        C  0.83102941  0.10306754  0.27885259     0.30300
C698        C  0.84837826  0.07233225  0.29590896    -0.20600
C699        C  0.85445113  0.07151132  0.33498156    -0.08600
C700        C  0.84443066  0.10309167  0.35639910     0.30300
F701        F  0.84835914  0.10312397  0.39424480    -0.19100
H702        H  0.81991905  0.15807498  0.35603170     0.18600
H703        H  0.85640368  0.04873992  0.27858669     0.18600
F704        F  0.82470602  0.10267541  0.24132141    -0.19100
C705        C  0.57303544  0.20072819  0.35743712    -0.20600
C706        C  0.56635219  0.16220703  0.35280135    -0.08600
C707        C  0.59263650  0.14066293  0.33284650     0.30300
C708        C  0.62446247  0.15751904  0.31711794    -0.20600
C709        C  0.63100655  0.19627592  0.32092211    -0.08600
C710        C  0.60507698  0.21766303  0.34190698     0.30300
F711        F  0.61001833  0.25502001  0.34673910    -0.19100
H712        H  0.55305339  0.21783855  0.37274007     0.18600
H713        H  0.64367723  0.14010557  0.30122723     0.18600
F714        F  0.58654506  0.10362644  0.32684089    -0.19100
C715        C  0.89335058  0.32510876  0.20546868    -0.20600
C716        C  0.86714046  0.30683175  0.18227862    -0.08600
C717        C  0.87188978  0.30838410  0.14311842     0.30300
C718        C  0.90280604  0.32727797  0.12771516    -0.20600
C719        C  0.92919536  0.34490107  0.15110476    -0.08600
C720        C  0.92401422  0.34408126  0.19007048     0.30300
F721        F  0.94879198  0.36158487  0.21318774    -0.19100
H722        H  0.88990477  0.32499547  0.23563735     0.18600
H723        H  0.90683941  0.32718048  0.09761893     0.18600
F724        F  0.84751366  0.29052401  0.11987065    -0.19100
C725        C  0.13985255  0.66189914  0.40638763    -0.20600
C726        C  0.16395877  0.64411134  0.43198306    -0.08600
C727        C  0.20253463  0.64104931  0.42330731     0.30300
C728        C  0.21679829  0.65685681  0.39031681    -0.20600
C729        C  0.19296236  0.67614967  0.36535018    -0.08600
C730        C  0.15399994  0.67779506  0.37349623     0.30300
F731        F  0.12943089  0.69547203  0.35024104    -0.19100
H732        H  0.11006422  0.66463740  0.41250108     0.18600
H733        H  0.24673551  0.65470523  0.38479790     0.18600
F734        F  0.22646678  0.62281934  0.44678068    -0.19100
C735        C  0.38599624  0.77846847  0.34643601    -0.20600
C736        C  0.35996454  0.80095702  0.32709454    -0.08600
C737        C  0.36581650  0.84012179  0.32613222     0.30300
C738        C  0.39800904  0.85577794  0.34217058    -0.20600
C739        C  0.42498440  0.83304523  0.35964152    -0.08600
C740        C  0.41819385  0.79430062  0.36262851     0.30300
F741        F  0.44285895  0.77169268  0.38096414    -0.19100
H742        H  0.38199951  0.74846854  0.34820475     0.18600
H743        H  0.40254983  0.88565931  0.33964193     0.18600
F744        F  0.34099375  0.86349390  0.30894199    -0.19100
C745        C  0.30831675  0.86057119  0.13479605    -0.20600
C746        C  0.30582485  0.82136558  0.13754273    -0.08600
C747        C  0.32325848  0.79897875  0.11012251     0.30300
C748        C  0.34080663  0.81542993  0.07953800    -0.20600
C749        C  0.34163026  0.85439874  0.07567761    -0.08600
C750        C  0.32610947  0.87711059  0.10389867     0.30300
F751        F  0.32658298  0.91497655  0.10067546    -0.19100
H752        H  0.29556737  0.87829635  0.15591647     0.18600
H753        H  0.35327008  0.79762760  0.05828308     0.18600
F754        F  0.32366963  0.76106803  0.11294317    -0.19100
C755        C  0.10104118  0.65025485  0.14361872    -0.20600
C756        C  0.06617499  0.66907680  0.14315034    -0.08600
C757        C  0.06493786  0.70676822  0.15526086     0.30300
C758        C  0.09676657  0.72347834  0.17101287    -0.20600
C759        C  0.13085118  0.70387123  0.17299673    -0.08600
C760        C  0.13325436  0.66770296  0.15775563     0.30300
F761        F  0.16614010  0.64823318  0.15895182    -0.19100
H762        H  0.10321780  0.62139075  0.13465221     0.18600
H763        H  0.09478870  0.75176006  0.18182556     0.18600
F764        F  0.03309169  0.72763903  0.15201743    -0.19100
C765        C  0.34115747  0.60822501  0.22148916    -0.20600
C766        C  0.32220191  0.63451988  0.19896894    -0.08600
C767        C  0.32194013  0.62899679  0.15966400     0.30300
C768        C  0.33877900  0.59744185  0.14382216    -0.20600
C769        C  0.35619815  0.57045264  0.16640117    -0.08600
C770        C  0.35794621  0.57643288  0.20543528     0.30300
F771        F  0.37581109  0.55149756  0.22804385    -0.19100
H772        H  0.34230578  0.61180897  0.25160844     0.18600
H773        H  0.33697137  0.59341991  0.11377068     0.18600
F774        F  0.30476027  0.65362108  0.13618686    -0.19100
C775        C  0.20485437  0.89756547  0.31624437    -0.20600
C776        C  0.17981542  0.86949610  0.30432047    -0.08600
C777        C  0.14105748  0.87369399  0.31176779     0.30300
C778        C  0.12787130  0.90564335  0.33044646    -0.20600
C779        C  0.15306378  0.93373413  0.34188669    -0.08600
C780        C  0.19175519  0.92921541  0.33491955     0.30300
F781        F  0.21702683  0.95526009  0.34660794    -0.19100
H782        H  0.23491280  0.89481808  0.31163226     0.18600
H783        H  0.09788809  0.90891046  0.33518989     0.18600
F784        F  0.11587770  0.84750171  0.30030572    -0.19100
C785        C  0.78061841  0.66092139  0.39753279    -0.20600
C786        C  0.80341670  0.67814550  0.37044987    -0.08600
C787        C  0.84297855  0.67769405  0.37550853     0.30300
C788        C  0.85886798  0.66196839  0.40768438    -0.20600
C789        C  0.83593244  0.64638912  0.43551441    -0.08600
C790        C  0.79662216  0.64521718  0.42977567     0.30300
F791        F  0.77361286  0.62903406  0.45544839    -0.19100
H792        H  0.75026552  0.66042416  0.39426558     0.18600
H793        H  0.88915586  0.66315556  0.41144354     0.18600
F794        F  0.86654228  0.69289535  0.34970419    -0.19100
C795        C  0.66017050  0.60606015  0.22534942    -0.20600
C796        C  0.67455535  0.63506183  0.20302027    -0.08600
C797        C  0.67086804  0.63230302  0.16368056     0.30300
C798        C  0.65538791  0.60032743  0.14728910    -0.20600
C799        C  0.64284006  0.57045300  0.16948827    -0.08600
C800        C  0.64434814  0.57412815  0.20887092     0.30300
F801        F  0.63065162  0.54683958  0.23153920    -0.19100
H802        H  0.66204911  0.60760238  0.25561117     0.18600
H803        H  0.65450990  0.59843759  0.11700178     0.18600
F804        F  0.68274176  0.66023300  0.14075326    -0.19100
C805        C  0.68272780  0.79482292  0.10777457    -0.20600
C806        C  0.69633986  0.81831028  0.13625355    -0.08600
C807        C  0.68992128  0.85718656  0.13358383     0.30300
C808        C  0.67083865  0.87207096  0.10254156    -0.20600
C809        C  0.65780509  0.84846115  0.07390466    -0.08600
C810        C  0.66342410  0.80957946  0.07713035     0.30300
F811        F  0.65010460  0.78575227  0.05057952    -0.19100
H812        H  0.68639307  0.76475482  0.10952200     0.18600
H813        H  0.66722534  0.90210732  0.10030422     0.18600
F814        F  0.70284918  0.88086977  0.16040922    -0.19100
C815        C  0.60437389  0.77593775  0.34565476    -0.20600
C816        C  0.63088061  0.79879329  0.32743257    -0.08600
C817        C  0.62478722  0.83792817  0.32695533     0.30300
C818        C  0.59258503  0.85337662  0.34302435    -0.20600
C819        C  0.56549323  0.83056786  0.35994380    -0.08600
C820        C  0.57185940  0.79161124  0.36169863     0.30300
F821        F  0.54668592  0.76874710  0.37887085    -0.19100
H822        H  0.60835878  0.74589281  0.34676801     0.18600
H823        H  0.58821898  0.88334489  0.34109107     0.18600
F824        F  0.64962463  0.86164223  0.31046665    -0.19100
C825        C  0.79345236  0.89791125  0.32119441    -0.20600
C826        C  0.81703709  0.86946034  0.30731831    -0.08600
C827        C  0.85633092  0.87282725  0.31205160     0.30300
C828        C  0.87149907  0.90445758  0.32964883    -0.20600
C829        C  0.84779700  0.93308239  0.34273121    -0.08600
C830        C  0.80857441  0.92930148  0.33883179     0.30300
F831        F  0.78485168  0.95603201  0.35216907    -0.19100
H832        H  0.76309325  0.89576412  0.31869253     0.18600
H833        H  0.90182168  0.90717721  0.33202654     0.18600
F834        F  0.88013965  0.84620825  0.29874005    -0.19100
C835        C  0.89397531  0.67724813  0.21090438    -0.20600
C836        C  0.86553339  0.69120023  0.18721505    -0.08600
C837        C  0.86764714  0.68385447  0.14851757     0.30300
C838        C  0.89868857  0.66457840  0.13381791    -0.20600
C839        C  0.92782599  0.65213217  0.15744382    -0.08600
C840        C  0.92464789  0.65767979  0.19630271     0.30300
F841        F  0.95156257  0.64468039  0.22010169    -0.19100
H842        H  0.89248328  0.68145754  0.24094039     0.18600
H843        H  0.90083663  0.66089914  0.10375534     0.18600
F844        F  0.84067884  0.69665849  0.12472692    -0.19100
C845        C  0.35745680  0.37261297  0.81279383    -0.20600
C846        C  0.32003960  0.37404714  0.79956800    -0.08600
C847        C  0.29850175  0.40645910  0.80660143     0.30300
C848        C  0.31423592  0.43664710  0.82563113    -0.20600
C849        C  0.35189484  0.43583557  0.83772497    -0.08600
C850        C  0.37337511  0.40325073  0.83159779     0.30300
F851        F  0.41003275  0.40147939  0.84242355    -0.19100
H852        H  0.37460655  0.34793446  0.80818025     0.18600
H853        H  0.29683036  0.46107704  0.83068387     0.18600
F854        F  0.26195917  0.40911923  0.79555169    -0.19100
C855        C  0.40180413  0.17518932  0.62043347    -0.20600
C856        C  0.43351011  0.16778590  0.64293909    -0.08600
C857        C  0.43262852  0.17786815  0.68099156     0.30300
C858        C  0.40120716  0.19579727  0.69594525    -0.20600
C859        C  0.36952087  0.20377337  0.67362327    -0.08600
C860        C  0.36996089  0.19302384  0.63557739     0.30300
F861        F  0.34004763  0.20018553  0.61291373    -0.19100
H862        H  0.40200170  0.16778073  0.59099271     0.18600
H863        H  0.40154976  0.20285107  0.72547193     0.18600
F864        F  0.46198835  0.16969866  0.70405963    -0.19100
C865        C  0.16209600  0.11229574  0.71868442    -0.20600
C866        C  0.17566001  0.14055579  0.69488126    -0.08600
C867        C  0.17096776  0.13625816  0.65581803     0.30300
C868        C  0.15499614  0.10364469  0.64109990    -0.20600
C869        C  0.14332775  0.07452963  0.66477312    -0.08600
C870        C  0.14613709  0.07960465  0.70389952     0.30300
F871        F  0.13373122  0.05285788  0.72791964    -0.19100
H872        H  0.16488340  0.11494291  0.74880234     0.18600
H873        H  0.15313433  0.10057070  0.61095094     0.18600
F874        F  0.18230495  0.16330037  0.63160416    -0.19100
C875        C  0.13376755  0.34665968  0.82486910    -0.20600
C876        C  0.13630021  0.30760532  0.82002832    -0.08600
C877        C  0.10743887  0.28487518  0.83445693     0.30300
C878        C  0.07603372  0.30114135  0.85167931    -0.20600
C879        C  0.07260810  0.34030035  0.85475938    -0.08600
C880        C  0.10237093  0.36291323  0.84203619     0.30300
F881        F  0.10022004  0.40081117  0.84401069    -0.19100
H882        H  0.15577376  0.36488307  0.81444722     0.18600
H883        H  0.05374501  0.28305082  0.86172171     0.18600
F884        F  0.10851727  0.24712162  0.83029560    -0.19100
C885        C  0.19511890  0.30190906  0.59149277    -0.20600
C886        C  0.19970952  0.32429137  0.62359280    -0.08600
C887        C  0.18618006  0.36144892  0.62275176     0.30300
C888        C  0.16879860  0.37559196  0.59039291    -0.20600
C889        C  0.16430793  0.35304439  0.55839521    -0.08600
C890        C  0.17743282  0.31586259  0.55946645     0.30300
F891        F  0.17214946  0.29245413  0.52995113    -0.19100
H892        H  0.20451115  0.27304480  0.59130685     0.18600
H893        H  0.15921159  0.40439634  0.59021313     0.18600
F894        F  0.18966222  0.38420522  0.65302333    -0.19100
C895        C  0.27965995  0.16140169  0.88418957    -0.20600
C896        C  0.30303686  0.18089331  0.85911902    -0.08600
C897        C  0.34238272  0.18069105  0.86559039     0.30300
C898        C  0.35753261  0.16232235  0.89670135    -0.20600
C899        C  0.33410729  0.14409677  0.92240014    -0.08600
C900        C  0.29492515  0.14329500  0.91559662     0.30300
F901        F  0.27131675  0.12547045  0.93960235    -0.19100
H902        H  0.24942193  0.16084576  0.87999635     0.18600
H903        H  0.38763372  0.16385483  0.90165193     0.18600
F904        F  0.36648620  0.19896219  0.84243960    -0.19100
C905        C  0.78156282  0.34749561  0.60976767    -0.20600
C906        C  0.80446580  0.32742610  0.63490018    -0.08600
C907        C  0.84372742  0.32582216  0.62808006     0.30300
C908        C  0.85904114  0.34218236  0.59602506    -0.20600
C909        C  0.83584152  0.36036545  0.56999265    -0.08600
C910        C  0.79703085  0.36378842  0.57757600     0.30300
F911        F  0.77401774  0.38257571  0.55363772    -0.19100
H912        H  0.75147845  0.34970048  0.61441885     0.18600
H913        H  0.88898167  0.33928998  0.59076688     0.18600
F914        F  0.86749864  0.30762835  0.65176216    -0.19100
C915        C  0.67781802  0.36904943  0.84208011    -0.20600
C916        C  0.67748988  0.36494068  0.80278520    -0.08600
C917        C  0.66088438  0.39340754  0.78096516     0.30300
C918        C  0.64643019  0.42563826  0.79817518    -0.20600
C919        C  0.64805618  0.43012530  0.83734571    -0.08600
C920        C  0.66341826  0.40116447  0.85918411     0.30300
F921        F  0.66640697  0.40466174  0.89696053    -0.19100
H922        H  0.69025102  0.34774216  0.85982641     0.18600
H923        H  0.63431897  0.44742397  0.78078299     0.18600
F924        F  0.65961714  0.39081466  0.74303213    -0.19100
C925        C  0.85618271  0.13171572  0.68208161    -0.20600
C926        C  0.81731978  0.13412676  0.68962594    -0.08600
C927        C  0.79349936  0.10504907  0.67733233     0.30300
C928        C  0.80848945  0.07370369  0.65960560    -0.20600
C929        C  0.84736301  0.07053834  0.65353220    -0.08600
C930        C  0.87118810  0.10011048  0.66421570     0.30300
F931        F  0.90902298  0.09765975  0.65905425    -0.19100
H932        H  0.87507057  0.15388575  0.69076507     0.18600
H933        H  0.78966473  0.05140359  0.65105881     0.18600
F934        F  0.75557441  0.10681509  0.68212450    -0.19100
C935        C  0.62809689  0.16378997  0.67471654    -0.20600
C936        C  0.63593763  0.20216063  0.66942658    -0.08600
C937        C  0.61264177  0.22281842  0.64496206     0.30300
C938        C  0.58122438  0.20576320  0.62811033    -0.20600
C939        C  0.57296674  0.16779492  0.63473611    -0.08600
C940        C  0.59712193  0.14682633  0.65765815     0.30300
F941        F  0.58936246  0.11046883  0.66560472    -0.19100
H942        H  0.64538009  0.14678695  0.69309789     0.18600
H943        H  0.56276462  0.22239591  0.61051877     0.18600
F944        F  0.61959613  0.25949484  0.63791580    -0.19100
C945        C  0.72179430  0.15846154  0.88947984    -0.20600
C946        C  0.69913655  0.17213853  0.86039699    -0.08600
C947        C  0.65983059  0.16783669  0.86246742     0.30300
C948        C  0.64333845  0.15221923  0.89448784    -0.20600
C949        C  0.66585861  0.14020456  0.92465502    -0.08600
C950        C  0.70543583  0.14195612  0.92105159     0.30300
F951        F  0.72833149  0.12818672  0.94828888    -0.19100
H952        H  0.75218115  0.16102761  0.88791983     0.18600
H953        H  0.61288847  0.15126382  0.89645528     0.18600
F954        F  0.63730562  0.18097494  0.83460781    -0.19100
C955        C  0.87104201  0.31245624  0.85693942    -0.20600
C956        C  0.86943857  0.30474893  0.81825881    -0.08600
C957        C  0.89929778  0.31695222  0.79526657     0.30300
C958        C  0.93026859  0.33521638  0.81072468    -0.20600
C959        C  0.93252087  0.34187122  0.84936058    -0.08600
C960        C  0.90240458  0.33077293  0.87247099     0.30300
F961        F  0.90396544  0.33627915  0.91009211    -0.19100
H962        H  0.84834573  0.30374164  0.87522889     0.18600
H963        H  0.95284940  0.34408328  0.79233706     0.18600
F964        F  0.89846783  0.31193066  0.75755601    -0.19100
C965        C  0.22408062  0.65791878  0.61088579    -0.20600
C966        C  0.20277824  0.68179320  0.63406462    -0.08600
C967        C  0.16398810  0.68656761  0.62596780     0.30300
C968        C  0.14748481  0.66862845  0.59533679    -0.20600
C969        C  0.16896966  0.64589873  0.57164608    -0.08600
C970        C  0.20741461  0.64023884  0.57984307     0.30300
F971        F  0.22877584  0.61762436  0.55783684    -0.19100
H972        H  0.25373380  0.65327544  0.61647729     0.18600
H973        H  0.11795926  0.67362532  0.58928063     0.18600
F974        F  0.14177290  0.70923342  0.64706603    -0.19100
C975        C  0.38248648  0.84386133  0.69112062    -0.20600
C976        C  0.37196430  0.80682933  0.68221868    -0.08600
C977        C  0.39340984  0.78689936  0.65568213     0.30300
C978        C  0.42496948  0.80355469  0.63919445    -0.20600
C979        C  0.43531340  0.84032101  0.64850929    -0.08600
C980        C  0.41378513  0.86045663  0.67444400     0.30300
F981        F  0.42400869  0.89558360  0.68483465    -0.19100
H982        H  0.36679934  0.86004116  0.71150867     0.18600
H983        H  0.44160265  0.78767987  0.61929310     0.18600
F984        F  0.38417492  0.75139323  0.64578563    -0.19100
C985        C  0.13405667  0.68999141  0.85474901    -0.20600
C986        C  0.13716067  0.69528952  0.81581157    -0.08600
C987        C  0.10959176  0.67983428  0.79206068     0.30300
C988        C  0.07863531  0.66124631  0.80716871    -0.20600
C989        C  0.07458216  0.65748849  0.84611550    -0.08600
C990        C  0.10294136  0.67130509  0.86987919     0.30300
F991        F  0.09966215  0.66839315  0.90766344    -0.19100
H992        H  0.15527123  0.70112000  0.87353820     0.18600
H993        H  0.05735998  0.65016984  0.78839352     0.18600
F994        F  0.11279623  0.68210222  0.75420106    -0.19100
C995        C  0.33112469  0.63440685  0.84008989    -0.20600
C996        C  0.32993683  0.63842572  0.80080509    -0.08600
C997        C  0.34643436  0.61042252  0.77843420     0.30300
C998        C  0.36253210  0.57870496  0.79521855    -0.20600
C999        C  0.36238431  0.57427248  0.83446728    -0.08600
C1000       C  0.34688929  0.60273977  0.85674127     0.30300
F1001       F  0.34463646  0.59889567  0.89453109    -0.19100
H1002       H  0.31872081  0.65537994  0.85822413     0.18600
H1003       H  0.37426676  0.55703711  0.77746319     0.18600
F1004       F  0.34557663  0.61275524  0.74047031    -0.19100
C1005       C  0.31183350  0.86050374  0.87448694    -0.20600
C1006       C  0.30340632  0.82201955  0.87322369    -0.08600
C1007       C  0.31303959  0.79946743  0.90421240     0.30300
C1008       C  0.33025756  0.81513152  0.93555708    -0.20600
C1009       C  0.33807951  0.85358620  0.93717633    -0.08600
C1010       C  0.32890576  0.87625956  0.90623031     0.30300
F1011       F  0.33534385  0.91369946  0.90708633    -0.19100
H1012       H  0.30493662  0.87848667  0.85101175     0.18600
H1013       H  0.33769083  0.79695585  0.95874135     0.18600
F1014       F  0.30673896  0.76198424  0.90411818    -0.19100
C1015       C  0.14691401  0.87211801  0.68783901    -0.20600
C1016       C  0.18551992  0.87176108  0.69686978    -0.08600
C1017       C  0.20775376  0.90292987  0.68697703     0.30300
C1018       C  0.19140813  0.93405976  0.66993589    -0.20600
C1019       C  0.15266296  0.93506906  0.66218745    -0.08600
C1020       C  0.13052128  0.90350892  0.67070639     0.30300
F1021       F  0.09287636  0.90352750  0.66385536    -0.19100
H1022       H  0.12924709  0.84838551  0.69468618     0.18600
H1023       H  0.20919752  0.95762711  0.66277817     0.18600
F1024       F  0.24552852  0.90332259  0.69317676    -0.19100
C1025       C  0.77788223  0.66125664  0.61161403    -0.20600
C1026       C  0.80063448  0.67635910  0.64001071    -0.08600
C1027       C  0.84022447  0.67359990  0.63660218     0.30300
C1028       C  0.85643000  0.65836626  0.60451221    -0.20600
C1029       C  0.83381536  0.64517655  0.57518828    -0.08600
C1030       C  0.79424965  0.64570696  0.57946385     0.30300
F1031       F  0.77137749  0.63144691  0.55249590    -0.19100
H1032       H  0.74745047  0.66254105  0.61371559     0.18600
H1033       H  0.88686406  0.65819503  0.60205831     0.18600
F1034       F  0.86359187  0.68630895  0.66395602    -0.19100
C1035       C  0.66176584  0.60844328  0.78348619    -0.20600
C1036       C  0.67698018  0.63647182  0.80659245    -0.08600
C1037       C  0.67502981  0.63176393  0.84585803     0.30300
C1038       C  0.66001431  0.59903662  0.86128320    -0.20600
C1039       C  0.64654680  0.57023382  0.83814960    -0.08600
C1040       C  0.64672028  0.57566811  0.79898813     0.30300
F1041       F  0.63238645  0.54928221  0.77561426    -0.19100
H1042       H  0.66245472  0.61137846  0.75328109     0.18600
H1043       H  0.66009655  0.59570746  0.89146201     0.18600
F1044       F  0.68805254  0.65853883  0.86956058    -0.19100
C1045       C  0.61099628  0.78185787  0.65962039    -0.20600
C1046       C  0.63785458  0.80487751  0.67712383    -0.08600
C1047       C  0.63378535  0.84412477  0.67424919     0.30300
C1048       C  0.60252445  0.85966250  0.65630260    -0.20600
C1049       C  0.57459437  0.83669112  0.64085561    -0.08600
C1050       C  0.57962732  0.79753400  0.64163785     0.30300
F1051       F  0.55386179  0.77440704  0.62565736    -0.19100
H1052       H  0.61361352  0.75166799  0.66081043     0.18600
H1053       H  0.59924423  0.88982253  0.65614397     0.18600
F1054       F  0.65945671  0.86778397  0.68955906    -0.19100
C1055       C  0.68938400  0.85742265  0.87510455    -0.20600
C1056       C  0.69720081  0.81881178  0.87336749    -0.08600
C1057       C  0.68505045  0.79560497  0.90283478     0.30300
C1058       C  0.66594052  0.81081801  0.93331617    -0.20600
C1059       C  0.65899313  0.84948397  0.93562815    -0.08600
C1060       C  0.67064055  0.87274748  0.90607070     0.30300
F1061       F  0.66532495  0.91034011  0.90778409    -0.19100
H1062       H  0.69828177  0.87586350  0.85270986     0.18600
H1063       H  0.65681417  0.79225215  0.95553617     0.18600
F1064       F  0.69085512  0.75802601  0.90199920    -0.19100
C1065       C  0.83474585  0.90031355  0.72279897    -0.20600
C1066       C  0.82269387  0.86956459  0.70166593    -0.08600
C1067       C  0.82782929  0.86961527  0.66263803     0.30300
C1068       C  0.84338222  0.90078582  0.64480069    -0.20600
C1069       C  0.85457156  0.93220582  0.66565048    -0.08600
C1070       C  0.85121965  0.93117044  0.70509702     0.30300
F1071       F  0.86392483  0.95990799  0.72655779    -0.19100
H1072       H  0.83154019  0.90031615  0.75299333     0.18600
H1073       H  0.84531702  0.90090484  0.61450697     0.18600
F1074       F  0.81596950  0.84024165  0.64157404    -0.19100
C1075       C  0.89955958  0.68737891  0.79465960    -0.20600
C1076       C  0.87011880  0.69737675  0.81903246    -0.08600
C1077       C  0.87275081  0.68736072  0.85709771     0.30300
C1078       C  0.90502550  0.66907896  0.87052752    -0.20600
C1079       C  0.93479528  0.66000116  0.84615386    -0.08600
C1080       C  0.93127015  0.66858132  0.80783384     0.30300
F1081       F  0.95824214  0.65831265  0.78285716    -0.19100
H1082       H  0.89785820  0.69356499  0.76497545     0.18600
H1083       H  0.90712207  0.66280079  0.90015625     0.18600
F1084       F  0.84464486  0.69584129  0.88144009    -0.19100
loop_ 
_geom_bond_atom_site_label_1 
_geom_bond_atom_site_label_2 
_geom_bond_distance 
_geom_bond_site_symmetry_2 
_ccdc_geom_bond_type 
N1            C6   1.354       .  A
N1            C5   1.354       .  A
N1           H33   1.035       .  S
N2            C9   1.353   1_545  A
N2           C10   1.354       .  A
N3            C8   1.355       .  A
N3            C7   1.355       .  A
N3           H34   1.035       .  S
N4           C11   1.354       .  A
N4           C12   1.354   1_565  A
C5           C13   1.388       .  A
C5           C21   1.418       .  A
C6           C22   1.417       .  A
C6           C14   1.388       .  A
C7           C15   1.388       .  A
C7           C24   1.419       .  A
C8           C23   1.419       .  A
C8           C16   1.388       .  A
C9           C21   1.418       .  A
C9           C17   1.386       .  A
C10          C24   1.419       .  A
C10          C18   1.386       .  A
C11          C19   1.386       .  A
C11          C22   1.418       .  A
C12          C20   1.386       .  A
C12          C23   1.419       .  A
C13          C14   1.369       .  A
C13          H25   1.082       .  S
C14          H26   1.082       .  S
C15          C16   1.370       .  A
C15          H27   1.082       .  S
C16          H28   1.082       .  S
C17          C18   1.378   1_565  A
C17          H29   1.082       .  S
C18          H30   1.082       .  S
C19          C20   1.378   1_565  A
C19          H31   1.082       .  S
C20          H32   1.082       .  S
C21         C582   1.486       .  S
C22         C492   1.488       .  S
C23         C418   1.490       .  S
C24         C544   1.490       .  S
N35          C40   1.354       .  A
N35          C39   1.355       .  A
N35          H67   1.036       .  S
N36          C43   1.354       .  A
N36          C44   1.352   1_655  A
N37          C42   1.355       .  A
N37          C41   1.354       .  A
N37          H68   1.035       .  S
N38          C45   1.353   1_455  A
N38          C46   1.354       .  A
C39          C47   1.388       .  A
C39          C55   1.419       .  A
C40          C56   1.417       .  A
C40          C48   1.388       .  A
C41          C49   1.389       .  A
C41          C58   1.419       .  A
C42          C57   1.418       .  A
C42          C50   1.387       .  A
C43          C55   1.418       .  A
C43          C51   1.386       .  A
C44          C58   1.418       .  A
C44          C52   1.387       .  A
C45          C53   1.386       .  A
C45          C56   1.418       .  A
C46          C54   1.386       .  A
C46          C57   1.418       .  A
C47          C48   1.369       .  A
C47          H59   1.082       .  S
C48          H60   1.082       .  S
C49          C50   1.370       .  A
C49          H61   1.082       .  S
C50          H62   1.082       .  S
C51          C52   1.378   1_655  A
C51          H63   1.082       .  S
C52          H64   1.082       .  S
C53          C54   1.378   1_655  A
C53          H65   1.082       .  S
C54          H66   1.082       .  S
C55         C456   1.491       .  S
C56         C598   1.487       .  S
C57         C501   1.490       .  S
C58         C517   1.486       .  S
N69          C74   1.355       .  A
N69          C73   1.354       .  A
N69         H101   1.035       .  S
N70          C77   1.353   1_554  A
N70          C78   1.354       .  A
N71          C76   1.354       .  A
N71          C75   1.355       .  A
N71         H102   1.033       .  S
N72          C79   1.354   1_554  A
N72          C80   1.353       .  A
C73          C81   1.388       .  A
C73          C89   1.418       .  A
C74          C90   1.418       .  A
C74          C82   1.388       .  A
C75          C83   1.388       .  A
C75          C92   1.419       .  A
C76          C91   1.419       .  A
C76          C84   1.388       .  A
C77          C89   1.419       .  A
C77          C85   1.386       .  A
C78          C92   1.419       .  A
C78          C86   1.386       .  A
C79          C87   1.386       .  A
C79          C90   1.418       .  A
C80          C88   1.386       .  A
C80          C91   1.419       .  A
C81          C82   1.370       .  A
C81          H93   1.082       .  S
C82          H94   1.082       .  S
C83          C84   1.369       .  A
C83          H95   1.082       .  S
C84          H96   1.082       .  S
C85          C86   1.378   1_556  A
C85          H97   1.082       .  S
C86          H98   1.082       .  S
C87          C88   1.377   1_556  A
C87          H99   1.082       .  S
C88         H100   1.082       .  S
C89         C555   1.487       .  S
C90         C589   1.489       .  S
C91         C445   1.487       .  S
C92         C463   1.490       .  S
N103        C108   1.353   1_455  A
N103        C107   1.353   1_456  A
N103        H135   1.035       .  S
N104        C111   1.351   1_655  A
N104        C112   1.352   1_655  A
N105        C110   1.353   1_455  A
N105        C109   1.352   1_456  A
N105        H136   1.035       .  S
N106        C113   1.351       .  A
N106        C114   1.352       .  A
C107        C115   1.387       .  A
C107        C123   1.416       .  A
C108        C124   1.418   1_655  A
C108        C116   1.389       .  A
C109        C117   1.387       .  A
C109        C126   1.414       .  A
C110        C125   1.415   1_655  A
C110        C118   1.388       .  A
C111        C123   1.416   1_455  A
C111        C119   1.387       .  A
C112        C126   1.414   1_455  A
C112        C120   1.386       .  A
C113        C121   1.387       .  A
C113        C124   1.416       .  A
C114        C122   1.386       .  A
C114        C125   1.415       .  A
C115        C116   1.373   1_554  A
C115        H127   1.082       .  S
C116        H128   1.082       .  S
C117        C118   1.370   1_554  A
C117        H129   1.082       .  S
C118        H130   1.082       .  S
C119        C120   1.375       .  A
C119        H131   1.082       .  S
C120        H132   1.082       .  S
C121        C122   1.374       .  A
C121        H133   1.082       .  S
C122        H134   1.082       .  S
C123        C472   1.482       .  S
C124        C573   1.481       .  S
C125        C528   1.483       .  S
C126        C400   1.481       .  S
N137        C142   1.353       .  A
N137        C141   1.356   1_545  A
N137        H169   1.036   1_554  S
N138        C145   1.352       .  A
N138        C146   1.350       .  A
N139        C144   1.354   1_556  A
N139        C143   1.352   1_546  A
N139        H170   1.036       .  S
N140        C147   1.353       .  A
N140        C148   1.355       .  A
C141        C149   1.386       .  A
C141        C157   1.416       .  A
C142        C158   1.420   1_554  A
C142        C150   1.390       .  A
C143        C151   1.388       .  A
C143        C160   1.414       .  A
C144        C159   1.416   1_554  A
C144        C152   1.388       .  A
C145        C157   1.414       .  A
C145        C153   1.386   1_554  A
C146        C160   1.413       .  A
C146        C154   1.387   1_554  A
C147        C155   1.387       .  A
C147        C158   1.420       .  A
C148        C156   1.385       .  A
C148        C159   1.418       .  A
C149        C150   1.373   1_565  A
C149        H161   1.082       .  S
C150        H162   1.082       .  S
C151        C152   1.369   1_565  A
C151        H163   1.082       .  S
C152        H164   1.082       .  S
C153        C154   1.374       .  A
C153        H165   1.082       .  S
C154        H166   1.082       .  S
C155        C156   1.378       .  A
C155        H167   1.082       .  S
C156        H168   1.082       .  S
C157        C508   1.488       .  S
C158        C438   1.485       .  S
C159        C411   1.491       .  S
C160        C483   1.476       .  S
O171        C187   1.276       .  A
O171       Zn177   2.033       .  S
C172       C1056   1.479       .  S
C172        O188   1.275       .  A
C172        O185   1.274       .  A
O173        C186   1.279       .  A
O173       Cd180   2.101       .  S
O174        C192   1.273       .  A
O174       Cd183   2.047       .  S
O175        C189   1.270       .  A
O175       Cd179   2.055       .  S
O176        C187   1.272       .  A
O176       Cd179   2.036       .  S
Zn177       O188   2.015       .  S
Zn177       O190   2.001       .  S
Zn177       O182   1.938       .  S
O178        C189   1.274       .  A
O178       Cd183   2.081       .  S
Cd179       O181   2.018       .  S
Cd179       O182   1.973       .  S
Cd180       O184   2.104       .  S
Cd180       O193   2.094       .  S
Cd180       O182   2.022       .  S
O181        C191   1.267       .  A
O182       Cd183   1.993       .  S
Cd183       O185   2.063       .  S
O184        C191   1.279       .  A
C186       C1036   1.488       .  S
C186        O190   1.272       .  A
C187       C1076   1.478       .  S
C189       C1066   1.469       .  S
C191       C1026   1.481       .  S
C192       C1046   1.484       .  S
C192        O193   1.280       .  A
O194        C210   1.275       .  A
O194       Zn200   2.016       .  S
C195       C1016   1.483       .  S
C195        O211   1.276       .  A
C195        O208   1.272       .  A
O196        C209   1.280       .  A
O196       Cd203   2.111       .  S
O197        C215   1.271       .  A
O197       Cd206   2.031       .  S
O198        C212   1.272       .  A
O198       Cd202   2.055       .  S
O199        C210   1.272       .  A
O199       Cd202   2.053       .  S
Zn200       O211   2.038       .  S
Zn200       O213   1.988       .  S
Zn200       O205   1.934       .  S
O201        C212   1.274       .  A
O201       Cd206   2.075       .  S
Cd202       O204   2.032       .  S
Cd202       O205   1.982       .  S
Cd203       O207   2.105       .  S
Cd203       O216   2.097       .  S
Cd203       O205   2.025       .  S
O204        C214   1.271       .  A
O205       Cd206   1.987       .  S
Cd206       O208   2.048       .  S
O207        C214   1.279       .  A
C209        C966   1.493       .  S
C209        O213   1.270       .  A
C210        C986   1.476       .  S
C212       C1006   1.483       .  S
C214        C996   1.485       .  S
C215        C976   1.483       .  S
C215        O216   1.280       .  A
O217        C233   1.273       .  A
O217       Zn223   2.000       .  S
C218        C946   1.470       .  S
C218        O234   1.273       .  A
C218        O231   1.275       .  A
O219        C232   1.280       .  A
O219       Cd226   2.118       .  S
O220        C238   1.274       .  A
O220       Cd229   2.050       .  S
O221        C235   1.273       .  A
O221       Cd225   2.056       .  S
O222        C233   1.273       .  A
O222       Cd225   2.068       .  S
Zn223       O234   2.020       .  S
Zn223       O236   1.976       .  S
Zn223       O228   1.927       .  S
O224        C235   1.276       .  A
O224       Cd229   2.087       .  S
Cd225       O227   2.036       .  S
Cd225       O228   1.990       .  S
Cd226       O230   2.105       .  S
Cd226       O239   2.103       .  S
Cd226       O228   2.027       .  S
O227        C237   1.270       .  A
O228       Cd229   1.997       .  S
Cd229       O231   2.076       .  S
O230        C237   1.280       .  A
C232        C936   1.492       .  S
C232        O236   1.270       .  A
C233        C926   1.480       .  S
C235        C956   1.485       .  S
C237        C906   1.487       .  S
C238        C916   1.488       .  S
C238        O239   1.281       .  A
O240        C256   1.275       .  A
O240       Zn246   2.015       .  S
C241        C859   1.484       .  S
C241        O257   1.276       .  A
C241        O254   1.274       .  A
O242        C255   1.279       .  A
O242       Cd249   2.095       .  S
O243        C261   1.271       .  A
O243       Cd252   2.044       .  S
O244        C258   1.274       .  A
O244       Cd248   2.061       .  S
O245        C256   1.275       .  A
O245       Cd248   2.076       .  S
Zn246       O257   2.038       .  S
Zn246       O259   2.005       .  S
Zn246       O251   1.942       .  S
O247        C258   1.274       .  A
O247       Cd252   2.071       .  S
Cd248       O250   2.048       .  S
Cd248       O251   1.993       .  S
Cd249       O253   2.094       .  S
Cd249       O262   2.101       .  S
Cd249       O251   2.018       .  S
O250        C260   1.273       .  A
O251       Cd252   1.988       .  S
Cd252       O254   2.053       .  S
O253        C260   1.279       .  A
C255        C866   1.487       .  S
C255        O259   1.273       .  A
C256        C886   1.487       .  S
C258        C846   1.484       .  S
C260        C876   1.483       .  S
C261        C896   1.489       .  S
C261        O262   1.279       .  A
O263        C279   1.275       .  A
O263       Zn269   2.016       .  S
C264        C836   1.479       .  S
C264        O280   1.275       .  A
C264        O277   1.273       .  A
O265        C278   1.280       .  A
O265       Cd272   2.103       .  S
O266        C284   1.270       .  A
O266       Cd275   2.034       .  S
O267        C281   1.273       .  A
O267       Cd271   2.057       .  S
O268        C279   1.272       .  A
O268       Cd271   2.060       .  S
Zn269       O280   2.028       .  S
Zn269       O282   1.986       .  S
Zn269       O274   1.935       .  S
O270        C281   1.274       .  A
O270       Cd275   2.073       .  S
Cd271       O273   2.031       .  S
Cd271       O274   1.982       .  S
Cd272       O276   2.111       .  S
Cd272       O285   2.106       .  S
Cd272       O274   2.026       .  S
O273        C283   1.270       .  A
O274       Cd275   1.988       .  S
Cd275       O277   2.051       .  S
O276        C283   1.280       .  A
C278        C796   1.486       .  S
C278        O282   1.271       .  A
C279        C806   1.479       .  S
C281        C826   1.480       .  S
C283        C816   1.487       .  S
C284        C786   1.485       .  S
C284        O285   1.281       .  A
O286        C302   1.272       .  A
O286       Zn292   2.014       .  S
C287        C776   1.479       .  S
C287        O303   1.271       .  A
C287        O300   1.274       .  A
O288        C301   1.279       .  A
O288       Cd295   2.102       .  S
O289        C307   1.275       .  A
O289       Cd298   2.060       .  S
O290        C304   1.272       .  A
O290       Cd294   2.051       .  S
O291        C302   1.271       .  A
O291       Cd294   2.043       .  S
Zn292       O303   1.990       .  S
Zn292       O305   1.966       .  S
Zn292       O297   1.932       .  S
O293        C304   1.275       .  A
O293       Cd298   2.071       .  S
Cd294       O296   2.031       .  S
Cd294       O297   1.976       .  S
Cd295       O299   2.119       .  S
Cd295       O308   2.099       .  S
Cd295       O297   2.023       .  S
O296        C306   1.269       .  A
O297       Cd298   1.997       .  S
Cd298       O300   2.078       .  S
O299        C306   1.281       .  A
C301        C736   1.484       .  S
C301        O305   1.268       .  A
C302        C746   1.473       .  S
C304        C759   1.467       .  S
C306        C766   1.491       .  S
C307        C729   1.490       .  S
C307        O308   1.281       .  A
O309        C325   1.278       .  A
O309       Zn315   2.054       .  S
C310        C696   1.466       .  S
C310        O326   1.277       .  A
C310        O323   1.271       .  A
O311        C324   1.280       .  A
O311       Cd318   2.105       .  S
O312        C330   1.268       .  A
O312       Cd321   2.028       .  S
O313        C327   1.273       .  A
O313       Cd317   2.069       .  S
O314        C325   1.271       .  A
O314       Cd317   2.047       .  S
Zn315       O326   2.037       .  S
Zn315       O328   2.014       .  S
Zn315       O320   1.951       .  S
O316        C327   1.274       .  A
O316       Cd321   2.067       .  S
Cd317       O319   2.025       .  S
Cd317       O320   1.984       .  S
Cd318       O322   2.107       .  S
Cd318       O331   2.123       .  S
Cd318       O320   2.030       .  S
O319        C329   1.270       .  A
O320       Cd321   1.984       .  S
Cd321       O323   2.048       .  S
O322        C329   1.280       .  A
C324        C709   1.493       .  S
C324        O328   1.276       .  A
C325        C686   1.489       .  S
C327        C716   1.479       .  S
C329        C676   1.485       .  S
C330        C669   1.491       .  S
C330        O331   1.281       .  A
N332        C337   1.356   1_665  A
N332        C336   1.354       .  A
N332        H364   1.035   1_655  S
N333        C340   1.352       .  A
N333        C341   1.352   1_565  A
N334        C339   1.354       .  A
N334        C338   1.356   1_455  A
N334        H365   1.035       .  S
N335        C342   1.352   1_545  A
N335        C343   1.351       .  A
C336        C344   1.388   1_565  A
C336        C352   1.418       .  A
C337        C353   1.418       .  A
C337        C345   1.388       .  A
C338        C346   1.387   1_545  A
C338        C355   1.418       .  A
C339        C354   1.418       .  A
C339        C347   1.389   1_545  A
C340        C352   1.417       .  A
C340        C348   1.386       .  A
C341        C355   1.417       .  A
C341        C349   1.387       .  A
C342        C350   1.386       .  A
C342        C353   1.417   1_565  A
C343        C351   1.387       .  A
C343        C354   1.417       .  A
C344        C345   1.369   1_655  A
C344        H356   1.082       .  S
C345        H357   1.082       .  S
C346        C347   1.370   1_655  A
C346        H358   1.082       .  S
C347        H359   1.082       .  S
C348        C349   1.374   1_565  A
C348        H360   1.082       .  S
C349        H361   1.082       .  S
C350        C351   1.375   1_565  A
C350        H362   1.082       .  S
C351        H363   1.082       .  S
C352        C562   1.483       .  S
C353        C535   1.486       .  S
C354        C368   1.482       .  S
C355        C427   1.486       .  S
C366        C367   1.402       .  A
C366        C371   1.400       .  A
C366        C656   1.477       .  S
C367        C368   1.406       .  A
C367        H372   1.084       .  S
C368        C369   1.405   1_545  A
C369        C370   1.403       .  A
C369        H373   1.084       .  S
C370        C371   1.400   1_565  A
C370        C779   1.478       .  S
C371        H374   1.084       .  S
O375        C391   1.274       .  A
O375       Zn381   2.007       .  S
C376        C649   1.464       .  S
C376        O392   1.272       .  A
C376        O389   1.273       .  A
O377        C390   1.279       .  A
O377       Cd384   2.106       .  S
O378        C396   1.275       .  A
O378       Cd387   2.053       .  S
O379        C393   1.273       .  A
O379       Cd383   2.050       .  S
O380        C391   1.272       .  A
O380       Cd383   2.062       .  S
Zn381       O392   2.013       .  S
Zn381       O394   1.986       .  S
Zn381       O386   1.928       .  S
O382        C393   1.275       .  A
O382       Cd387   2.085       .  S
Cd383       O385   2.034       .  S
Cd383       O386   1.983       .  S
Cd384       O388   2.112       .  S
Cd384       O397   2.097       .  S
Cd384       O386   2.022       .  S
O385        C395   1.270       .  A
O386       Cd387   1.997       .  S
Cd387       O389   2.064       .  S
O388        C395   1.281       .  A
C390        C616   1.489       .  S
C390        O394   1.270       .  A
C391        C636   1.482       .  S
C393        C659   1.478       .  S
C395        C629   1.489       .  S
C396        C609   1.487       .  S
C396        O397   1.280       .  A
C398        C399   1.404       .  A
C398        C403   1.402   1_455  A
C398        C646   1.482       .  S
C399        C400   1.403   1_455  A
C399        H404   1.084       .  S
C400        C401   1.405       .  A
C401        C402   1.402       .  A
C401        H405   1.084       .  S
C402        C403   1.399       .  A
C402        C719   1.474       .  S
C403        H406   1.084       .  S
C407        C408   1.398       .  A
C407        C412   1.409       .  A
C407        C899   1.485       .  S
C408        C409   1.401   1_556  A
C408        H413   1.083       .  S
C409        C410   1.405       .  A
C409        C639   1.482       .  S
C410        C411   1.407   1_554  A
C410        H414   1.084       .  S
C411        C412   1.408       .  A
C412        H415   1.083       .  S
C416        C417   1.408       .  A
C416        C421   1.402       .  A
C416        C706   1.485       .  S
C417        C418   1.407       .  A
C417        H422   1.084       .  S
C418        C419   1.406       .  A
C419        C420   1.406       .  A
C419        H423   1.084       .  S
C420        C421   1.402       .  A
C420        C626   1.481       .  S
C421        H424   1.084       .  S
C425        C426   1.402       .  A
C425        C430   1.398   1_565  A
C425        C829   1.477       .  S
C426        C427   1.404   1_565  A
C426        H431   1.084       .  S
C427        C428   1.407       .  A
C428        C429   1.408       .  A
C428        H432   1.083       .  S
C429        C430   1.401       .  A
C429        C699   1.487       .  S
C430        H433   1.084       .  S
C434        C435   1.404       .  A
C434        C439   1.406       .  A
C434        C949   1.489       .  S
C435        C436   1.405   1_556  A
C435        H440   1.083       .  S
C436        C437   1.405       .  A
C436        C689   1.489       .  S
C437        C438   1.405   1_554  A
C437        H441   1.083       .  S
C438        C439   1.405       .  A
C439        H442   1.084       .  S
C443        C444   1.403       .  A
C443        C448   1.400       .  A
C443        C679   1.477       .  S
C444        C445   1.402       .  A
C444        H449   1.084       .  S
C445        C446   1.406       .  A
C446        C447   1.410       .  A
C446        H450   1.083       .  S
C447        C448   1.404       .  A
C447        C799   1.489       .  S
C448        H451   1.083       .  S
C452        C453   1.402       .  A
C452        C457   1.410       .  A
C452        C666   1.487       .  S
C453        C454   1.401       .  A
C453        H458   1.084       .  S
C454        C455   1.404       .  A
C454        C909   1.481       .  S
C455        C456   1.405       .  A
C455        H459   1.084       .  S
C456        C457   1.407       .  A
C457        H460   1.084       .  S
C461        C462   1.407       .  A
C461        C466   1.404       .  A
C461        C619   1.488       .  S
C462        C463   1.406       .  A
C462        H467   1.084       .  S
C463        C464   1.405       .  A
C464        C465   1.408       .  A
C464        H468   1.084       .  S
C465        C466   1.403       .  A
C465        C769   1.485       .  S
C466        H469   1.084       .  S
C470        C471   1.407       .  A
C470        C475   1.403   1_455  A
C470        C756   1.490       .  S
C471        C472   1.403   1_455  A
C471        H476   1.083       .  S
C472        C473   1.403       .  A
C473        C474   1.402       .  A
C473        H477   1.084       .  S
C474        C475   1.400       .  A
C474        C839   1.479       .  S
C475        H478   1.081       .  S
C479        C480   1.399       .  A
C479        C484   1.398       .  A
C479        C749   1.470       .  S
C480        C481   1.400   1_554  A
C480        H485   1.084       .  S
C481        C482   1.403       .  A
C481       C1009   1.481       .  S
C482        C483   1.404   1_556  A
C482        H486   1.083       .  S
C483        C484   1.403       .  A
C484        H487   1.084       .  S
C488        C489   1.403       .  A
C488        C493   1.406       .  A
C488        C739   1.482       .  S
C489        C490   1.401       .  A
C489        H494   1.084       .  S
C490        C491   1.407       .  A
C490        C819   1.483       .  S
C491        C492   1.403       .  A
C491        H495   1.084       .  S
C492        C493   1.404       .  A
C493        H496   1.084       .  S
C497        C498   1.402       .  A
C497        C502   1.408       .  A
C497        C969   1.483       .  S
C498        C499   1.404       .  A
C498        H503   1.084       .  S
C499        C500   1.406       .  A
C499        C726   1.484       .  S
C500        C501   1.404       .  A
C500        H504   1.084       .  S
C501        C502   1.407       .  A
C502        H505   1.084       .  S
C506        C507   1.405       .  A
C506        C511   1.398   1_556  A
C506       C1059   1.482       .  S
C507        C508   1.408   1_556  A
C507        H512   1.083       .  S
C508        C509   1.408       .  A
C509        C510   1.405       .  A
C509        H513   1.083       .  S
C510        C511   1.397       .  A
C510        C809   1.480       .  S
C511        H514   1.084       .  S
C515        C516   1.405       .  A
C515        C520   1.402       .  A
C515        C606   1.484       .  S
C516        C517   1.403       .  A
C516        H521   1.084       .  S
C517        C518   1.405       .  A
C518        C519   1.406       .  A
C518        H522   1.084       .  S
C519        C520   1.404       .  A
C519        C889   1.487       .  S
C520        H523   1.083       .  S
C524        C525   1.402   1_655  A
C524        C529   1.403       .  A
C524        C959   1.482       .  S
C525        C526   1.402       .  A
C525        H530   1.084       .  S
C526        C527   1.405       .  A
C526        C879   1.487       .  S
C527        C528   1.405       .  A
C527        H531   1.083       .  S
C528        C529   1.405   1_455  A
C529        H532   1.084       .  S
C533        C534   1.408       .  A
C533        C538   1.403       .  A
C533        C869   1.490       .  S
C534        C535   1.407       .  A
C534        H539   1.084       .  S
C535        C536   1.402   1_545  A
C536        C537   1.403       .  A
C536        H540   1.084       .  S
C537        C538   1.405   1_565  A
C537       C1019   1.483       .  S
C538        H541   1.083       .  S
C542        C543   1.407       .  A
C542        C547   1.398       .  A
C542        C939   1.482       .  S
C543        C544   1.407       .  A
C543        H548   1.084       .  S
C544        C545   1.407       .  A
C545        C546   1.406       .  A
C545        H549   1.084       .  S
C546        C547   1.403       .  A
C546        C856   1.483       .  S
C547        H550   1.084       .  S
C551        C552   1.403       .  A
C551        C556   1.406       .  A
C551        C849   1.484       .  S
C552        C553   1.398       .  A
C552        H557   1.084       .  S
C553        C554   1.406       .  A
C553        C999   1.484       .  S
C554        C555   1.405       .  A
C554        H558   1.084       .  S
C555        C556   1.407       .  A
C556        H559   1.083       .  S
C560        C561   1.401       .  A
C560        C565   1.401       .  A
C560        C929   1.476       .  S
C561        C562   1.403   1_545  A
C561        H566   1.084       .  S
C562        C563   1.406       .  A
C563        C564   1.407       .  A
C563        H567   1.084       .  S
C564        C565   1.401   1_565  A
C564       C1069   1.486       .  S
C565        H568   1.084       .  S
C569        C570   1.399       .  A
C569        C574   1.402       .  A
C569        C989   1.477       .  S
C570        C571   1.401   1_455  A
C570        H575   1.084       .  S
C571        C572   1.403       .  A
C571       C1079   1.482       .  S
C572        C573   1.404   1_655  A
C572        H576   1.084       .  S
C573        C574   1.404       .  A
C574        H577   1.084       .  S
C578        C579   1.397       .  A
C578        C583   1.402       .  A
C578        C979   1.471       .  S
C579        C580   1.400       .  A
C579        H584   1.084       .  S
C580        C581   1.408       .  A
C580       C1049   1.482       .  S
C581        C582   1.406       .  A
C581        H585   1.084       .  S
C582        C583   1.404       .  A
C583        H586   1.084       .  S
C587        C588   1.406       .  A
C587        C592   1.404       .  A
C587        C919   1.486       .  S
C588        C589   1.404       .  A
C588        H593   1.084       .  S
C589        C590   1.405       .  A
C590        C591   1.408       .  A
C590        H594   1.084       .  S
C591        C592   1.405       .  A
C591       C1039   1.489       .  S
C592        H595   1.083       .  S
C596        C597   1.406       .  A
C596        C601   1.401       .  A
C596        C789   1.483       .  S
C597        C598   1.404       .  A
C597        H602   1.084       .  S
C598        C599   1.404       .  A
C599        C600   1.407       .  A
C599        H603   1.084       .  S
C600        C601   1.401       .  A
C600       C1029   1.484       .  S
C601        H604   1.083       .  S
C605        C606   1.407       .  A
C605        C610   1.401       .  A
C605        H612   1.083       .  S
C606        C607   1.404       .  A
C607        C608   1.395       .  A
C607        F614   1.358       .  S
C608        C609   1.409       .  A
C608        H613   1.083       .  S
C609        C610   1.409       .  A
C610        F611   1.357       .  S
C615        C616   1.405       .  A
C615        C620   1.402       .  A
C615        H622   1.083       .  S
C616        C617   1.414       .  A
C617        C618   1.397       .  A
C617        F624   1.358       .  S
C618        C619   1.401       .  A
C618        H623   1.083       .  S
C619        C620   1.410       .  A
C620        F621   1.357       .  S
C625        C626   1.398       .  A
C625        C630   1.396       .  A
C625        H632   1.084       .  S
C626        C627   1.408       .  A
C627        C628   1.402       .  A
C627        F634   1.357       .  S
C628        C629   1.406       .  A
C628        H633   1.083       .  S
C629        C630   1.416       .  A
C630        F631   1.358       .  S
C635        C636   1.404       .  A
C635        C640   1.391       .  A
C635        H642   1.083       .  S
C636        C637   1.412       .  A
C637        C638   1.402       .  A
C637        F644   1.358       .  S
C638        C639   1.405       .  A
C638        H643   1.083       .  S
C639        C640   1.406       .  A
C640        F641   1.358       .  S
C645        C646   1.405       .  A
C645        C650   1.397       .  A
C645        H652   1.083       .  S
C646        C647   1.411       .  A
C647        C648   1.397       .  A
C647        F654   1.358       .  S
C648        C649   1.399       .  A
C648        H653   1.083       .  S
C649        C650   1.404       .  A
C650        F651   1.358       .  S
C655        C656   1.406       .  A
C655        C660   1.405       .  A
C655        H662   1.083       .  S
C656        C657   1.403       .  A
C657        C658   1.390       .  A
C657        F664   1.358       .  S
C658        C659   1.404       .  A
C658        H663   1.084       .  S
C659        C660   1.409       .  A
C660        F661   1.357       .  S
C665        C666   1.399       .  A
C665        C670   1.395       .  A
C665        H672   1.083       .  S
C666        C667   1.411       .  A
C667        C668   1.404       .  A
C667        F674   1.357       .  S
C668        C669   1.405       .  A
C668        H673   1.083       .  S
C669        C670   1.416       .  A
C670        F671   1.358       .  S
C675        C676   1.411       .  A
C675        C680   1.392       .  A
C675        H682   1.083       .  S
C676        C677   1.408       .  A
C677        C678   1.401       .  A
C677        F684   1.357       .  S
C678        C679   1.407       .  A
C678        H683   1.083       .  S
C679        C680   1.400       .  A
C680        F681   1.358       .  S
C685        C686   1.407       .  A
C685        C690   1.404       .  A
C685        H692   1.083       .  S
C686        C687   1.412       .  A
C687        C688   1.394       .  A
C687        F694   1.358       .  S
C688        C689   1.403       .  A
C688        H693   1.083       .  S
C689        C690   1.410       .  A
C690        F691   1.357       .  S
C695        C696   1.403       .  A
C695        C700   1.398       .  A
C695        H702   1.084       .  S
C696        C697   1.399       .  A
C697        C698   1.397       .  A
C697        F704   1.357       .  S
C698        C699   1.411       .  A
C698        H703   1.083       .  S
C699        C700   1.408       .  A
C700        F701   1.357       .  S
C705        C706   1.406       .  A
C705        C710   1.403       .  A
C705        H712   1.083       .  S
C706        C707   1.403       .  A
C707        C708   1.398       .  A
C707        F714   1.358       .  S
C708        C709   1.411       .  A
C708        H713   1.083       .  S
C709        C710   1.411       .  A
C710        F711   1.357       .  S
C715        C716   1.405       .  A
C715        C720   1.396       .  A
C715        H722   1.083       .  S
C716        C717   1.409       .  A
C717        C718   1.401       .  A
C717        F724   1.357       .  S
C718        C719   1.403       .  A
C718        H723   1.083       .  S
C719        C720   1.403       .  A
C720        F721   1.358       .  S
C725        C726   1.402       .  A
C725        C730   1.398       .  A
C725        H732   1.083       .  S
C726        C727   1.407       .  A
C727        C728   1.401       .  A
C727        F734   1.357       .  S
C728        C729   1.407       .  A
C728        H733   1.083       .  S
C729        C730   1.414       .  A
C730        F731   1.358       .  S
C735        C736   1.404       .  A
C735        C740   1.399       .  A
C735        H742   1.083       .  S
C736        C737   1.415       .  A
C737        C738   1.394       .  A
C737        F744   1.358       .  S
C738        C739   1.400       .  A
C738        H743   1.083       .  S
C739        C740   1.409       .  A
C740        F741   1.357       .  S
C745        C746   1.407       .  A
C745        C750   1.402       .  A
C745        H752   1.083       .  S
C746        C747   1.407       .  A
C747        C748   1.388       .  A
C747        F754   1.358       .  S
C748        C749   1.399       .  A
C748        H753   1.084       .  S
C749        C750   1.405       .  A
C750        F751   1.358       .  S
C755        C756   1.407       .  A
C755        C760   1.396       .  A
C755        H762   1.082       .  S
C756        C757   1.415       .  A
C757        C758   1.395       .  A
C757        F764   1.357       .  S
C758        C759   1.398       .  A
C758        H763   1.084       .  S
C759        C760   1.404       .  A
C760        F761   1.358       .  S
C765        C766   1.406       .  A
C765        C770   1.404       .  A
C765        H772   1.083       .  S
C766        C767   1.416       .  A
C767        C768   1.395       .  A
C767        F774   1.358       .  S
C768        C769   1.399       .  A
C768        H773   1.084       .  S
C769        C770   1.410       .  A
C770        F771   1.357       .  S
C775        C776   1.406       .  A
C775        C780   1.392       .  A
C775        H782   1.083       .  S
C776        C777   1.408       .  A
C777        C778   1.402       .  A
C777        F784   1.357       .  S
C778        C779   1.405       .  A
C778        H783   1.083       .  S
C779        C780   1.404       .  A
C780        F781   1.358       .  S
C785        C786   1.403       .  A
C785        C790   1.399       .  A
C785        H792   1.083       .  S
C786        C787   1.415       .  A
C787        C788   1.396       .  A
C787        F794   1.358       .  S
C788        C789   1.400       .  A
C788        H793   1.083       .  S
C789        C790   1.410       .  A
C790        F791   1.357       .  S
C795        C796   1.404       .  A
C795        C800   1.401       .  A
C795        H802   1.083       .  S
C796        C797   1.413       .  A
C797        C798   1.396       .  A
C797        F804   1.358       .  S
C798        C799   1.402       .  A
C798        H803   1.083       .  S
C799        C800   1.412       .  A
C800        F801   1.357       .  S
C805        C806   1.403       .  A
C805        C810   1.392       .  A
C805        H812   1.083       .  S
C806        C807   1.410       .  A
C807        C808   1.402       .  A
C807        F814   1.357       .  S
C808        C809   1.403       .  A
C808        H813   1.083       .  S
C809        C810   1.407       .  A
C810        F811   1.358       .  S
C815        C816   1.406       .  A
C815        C820   1.404       .  A
C815        H822   1.083       .  S
C816        C817   1.414       .  A
C817        C818   1.392       .  A
C817        F824   1.358       .  S
C818        C819   1.398       .  A
C818        H823   1.084       .  S
C819        C820   1.411       .  A
C820        F821   1.358       .  S
C825        C826   1.406       .  A
C825        C830   1.393       .  A
C825        H832   1.083       .  S
C826        C827   1.409       .  A
C827        C828   1.400       .  A
C827        F834   1.357       .  S
C828        C829   1.403       .  A
C828        H833   1.083       .  S
C829        C830   1.405       .  A
C830        F831   1.358       .  S
C835        C836   1.406       .  A
C835        C840   1.394       .  A
C835        H842   1.083       .  S
C836        C837   1.407       .  A
C837        C838   1.400       .  A
C837        F844   1.357       .  S
C838        C839   1.405       .  A
C838        H843   1.083       .  S
C839        C840   1.405       .  A
C840        F841   1.358       .  S
C845        C846   1.409       .  A
C845        C850   1.403       .  A
C845        H852   1.083       .  S
C846        C847   1.409       .  A
C847        C848   1.391       .  A
C847        F854   1.358       .  S
C848        C849   1.404       .  A
C848        H853   1.083       .  S
C849        C850   1.407       .  A
C850        F851   1.357       .  S
C855        C856   1.406       .  A
C855        C860   1.405       .  A
C855        H862   1.083       .  S
C856        C857   1.405       .  A
C857        C858   1.392       .  A
C857        F864   1.358       .  S
C858        C859   1.405       .  A
C858        H863   1.083       .  S
C859        C860   1.411       .  A
C860        F861   1.357       .  S
C865        C866   1.405       .  A
C865        C870   1.401       .  A
C865        H872   1.083       .  S
C866        C867   1.412       .  A
C867        C868   1.398       .  A
C867        F874   1.358       .  S
C868        C869   1.403       .  A
C868        H873   1.083       .  S
C869        C870   1.411       .  A
C870        F871   1.358       .  S
C875        C876   1.408       .  A
C875        C880   1.397       .  A
C875        H882   1.083       .  S
C876        C877   1.406       .  A
C877        C878   1.399       .  A
C877        F884   1.357       .  S
C878        C879   1.408       .  A
C878        H883   1.083       .  S
C879        C880   1.406       .  A
C880        F881   1.358       .  S
C885        C886   1.406       .  A
C885        C890   1.395       .  A
C885        H892   1.083       .  S
C886        C887   1.411       .  A
C887        C888   1.402       .  A
C887        F894   1.357       .  S
C888        C889   1.406       .  A
C888        H893   1.083       .  S
C889        C890   1.407       .  A
C890        F891   1.358       .  S
C895        C896   1.406       .  A
C895        C900   1.402       .  A
C895        H902   1.083       .  S
C896        C897   1.414       .  A
C897        C898   1.396       .  A
C897        F904   1.357       .  S
C898        C899   1.399       .  A
C898        H903   1.083       .  S
C899        C900   1.411       .  A
C900        F901   1.358       .  S
C905        C906   1.405       .  A
C905        C910   1.400       .  A
C905        H912   1.083       .  S
C906        C907   1.415       .  A
C907        C908   1.395       .  A
C907        F914   1.358       .  S
C908        C909   1.399       .  A
C908        H913   1.083       .  S
C909        C910   1.408       .  A
C910        F911   1.357       .  S
C915        C916   1.410       .  A
C915        C920   1.396       .  A
C915        H922   1.083       .  S
C916        C917   1.408       .  A
C917        C918   1.402       .  A
C917        F924   1.357       .  S
C918        C919   1.408       .  A
C918        H923   1.083       .  S
C919        C920   1.404       .  A
C920        F921   1.358       .  S
C925        C926   1.407       .  A
C925        C930   1.401       .  A
C925        H932   1.083       .  S
C926        C927   1.409       .  A
C927        C928   1.391       .  A
C927        F934   1.358       .  S
C928        C929   1.400       .  A
C928        H933   1.084       .  S
C929        C930   1.406       .  A
C930        F931   1.358       .  S
C935        C936   1.412       .  A
C935        C940   1.395       .  A
C935        H942   1.083       .  S
C936        C937   1.409       .  A
C937        C938   1.405       .  A
C937        F944   1.357       .  S
C938        C939   1.408       .  A
C938        H943   1.083       .  S
C939        C940   1.400       .  A
C940        F941   1.358       .  S
C945        C946   1.399       .  A
C945        C950   1.398       .  A
C945        H952   1.083       .  S
C946        C947   1.405       .  A
C947        C948   1.400       .  A
C947        F954   1.358       .  S
C948        C949   1.406       .  A
C948        H953   1.083       .  S
C949        C950   1.411       .  A
C950        F951   1.357       .  S
C955        C956   1.408       .  A
C955        C960   1.405       .  A
C955        H962   1.083       .  S
C956        C957   1.410       .  A
C957        C958   1.392       .  A
C957        F964   1.358       .  S
C958        C959   1.401       .  A
C958        H963   1.084       .  S
C959        C960   1.408       .  A
C960        F961   1.358       .  S
C965        C966   1.408       .  A
C965        C970   1.405       .  A
C965        H972   1.083       .  S
C966        C967   1.416       .  A
C967        C968   1.395       .  A
C967        F974   1.357       .  S
C968        C969   1.398       .  A
C968        H973   1.084       .  S
C969        C970   1.409       .  A
C970        F971   1.357       .  S
C975        C976   1.411       .  A
C975        C980   1.393       .  A
C975        H982   1.083       .  S
C976        C977   1.408       .  A
C977        C978   1.399       .  A
C977        F984   1.357       .  S
C978        C979   1.404       .  A
C978        H983   1.083       .  S
C979        C980   1.399       .  A
C980        F981   1.358       .  S
C985        C986   1.406       .  A
C985        C990   1.400       .  A
C985        H992   1.083       .  S
C986        C987   1.407       .  A
C987        C988   1.393       .  A
C987        F994   1.358       .  S
C988        C989   1.404       .  A
C988        H993   1.084       .  S
C989        C990   1.405       .  A
C990        F991   1.357       .  S
C995        C996   1.409       .  A
C995       C1000   1.394       .  A
C995       H1002   1.083       .  S
C996        C997   1.407       .  A
C997        C998   1.402       .  A
C997       F1004   1.357       .  S
C998        C999   1.409       .  A
C998       H1003   1.083       .  S
C999       C1000   1.402       .  A
C1000      F1001   1.358       .  S
C1005      C1006   1.408       .  A
C1005      C1010   1.402       .  A
C1005      H1012   1.083       .  S
C1006      C1007   1.409       .  A
C1007      C1008   1.391       .  A
C1007      F1014   1.358       .  S
C1008      C1009   1.403       .  A
C1008      H1013   1.084       .  S
C1009      C1010   1.407       .  A
C1010      F1011   1.357       .  S
C1015      C1016   1.406       .  A
C1015      C1020   1.402       .  A
C1015      H1022   1.083       .  S
C1016      C1017   1.410       .  A
C1017      C1018   1.393       .  A
C1017      F1024   1.358       .  S
C1018      C1019   1.402       .  A
C1018      H1023   1.083       .  S
C1019      C1020   1.408       .  A
C1020      F1021   1.357       .  S
C1025      C1026   1.403       .  A
C1025      C1030   1.401       .  A
C1025      H1032   1.083       .  S
C1026      C1027   1.413       .  A
C1027      C1028   1.392       .  A
C1027      F1034   1.358       .  S
C1028      C1029   1.400       .  A
C1028      H1033   1.083       .  S
C1029      C1030   1.412       .  A
C1030      F1031   1.357       .  S
C1035      C1036   1.405       .  A
C1035      C1040   1.401       .  A
C1035      H1042   1.083       .  S
C1036      C1037   1.413       .  A
C1037      C1038   1.398       .  A
C1037      F1044   1.358       .  S
C1038      C1039   1.403       .  A
C1038      H1043   1.083       .  S
C1039      C1040   1.411       .  A
C1040      F1041   1.357       .  S
C1045      C1046   1.405       .  A
C1045      C1050   1.400       .  A
C1045      H1052   1.083       .  S
C1046      C1047   1.413       .  A
C1047      C1048   1.394       .  A
C1047      F1054   1.357       .  S
C1048      C1049   1.400       .  A
C1048      H1053   1.083       .  S
C1049      C1050   1.410       .  A
C1050      F1051   1.358       .  S
C1055      C1056   1.408       .  A
C1055      C1060   1.401       .  A
C1055      H1062   1.083       .  S
C1056      C1057   1.407       .  A
C1057      C1058   1.392       .  A
C1057      F1064   1.358       .  S
C1058      C1059   1.405       .  A
C1058      H1063   1.084       .  S
C1059      C1060   1.405       .  A
C1060      F1061   1.357       .  S
C1065      C1066   1.399       .  A
C1065      C1070   1.399       .  A
C1065      H1072   1.083       .  S
C1066      C1067   1.404       .  A
C1067      C1068   1.397       .  A
C1067      F1074   1.358       .  S
C1068      C1069   1.404       .  A
C1068      H1073   1.083       .  S
C1069      C1070   1.413       .  A
C1070      F1071   1.358       .  S
C1075      C1076   1.405       .  A
C1075      C1080   1.390       .  A
C1075      H1082   1.083       .  S
C1076      C1077   1.407       .  A
C1077      C1078   1.401       .  A
C1077      F1084   1.357       .  S
C1078      C1079   1.406       .  A
C1078      H1083   1.083       .  S
C1079      C1080   1.406       .  A
C1080      F1081   1.358       .  S
