geometry optimzed in LAMMPS
_audit_creation_date              2020-11-30 
_audit_creation_method            'lammps2cif' 
_symmetry_space_group_name_H-M    'P1' 
_symmetry_Int_Tables_number       1 
_symmetry_cell_setting            triclinic 
loop_ 
_symmetry_equiv_pos_as_xyz 
  x,y,z 
_cell_length_a                    27.88521593 
_cell_length_b                    27.64739720765152 
_cell_length_c                    28.23268346771291 
_cell_angle_alpha                 90.19516727244222 
_cell_angle_beta                  89.82750863100958 
_cell_angle_gamma                 89.52423820421492 
loop_ 
_atom_site_label 
_atom_site_type_symbol 
_atom_site_fract_x 
_atom_site_fract_y 
_atom_site_fract_z 
_atom_site_charge 
N1          N  0.50648481  0.91354019  0.50342582    -0.32900
N2          N  0.51280246  0.98441316  0.42626365    -0.53400
N3          N  0.51834705  0.06400951  0.49613136    -0.32900
N4          N  0.51241915  0.99271241  0.57286380    -0.53400
C5          C  0.51134786  0.88275599  0.46619568     0.30700
C6          C  0.51166441  0.88703687  0.54349555     0.30700
C7          C  0.51547168  0.09066271  0.45592508     0.30700
C8          C  0.51546495  0.09498438  0.53353815     0.30700
C9          C  0.50980970  0.94316621  0.39986735     0.39300
C10         C  0.51390390  0.02251263  0.39584637     0.39300
C11         C  0.50861645  0.95465141  0.60308538     0.39300
C12         C  0.51269839  0.03382754  0.59953458     0.39300
C13         C  0.51839655  0.83614150  0.48300349    -0.18200
C14         C  0.51869849  0.83889493  0.53165286    -0.18200
C15         C  0.51187513  0.13921130  0.46800662    -0.18200
C16         C  0.51187469  0.14191961  0.51681907    -0.18200
C17         C  0.50914464  0.95500757  0.35240375    -0.19200
C18         C  0.51168245  0.00473255  0.34979248    -0.19200
C19         C  0.50616150  0.97190519  0.64909179    -0.19200
C20         C  0.50898388  0.02131903  0.64692078    -0.19200
C21         C  0.50933924  0.89464792  0.41730701    -0.14600
C22         C  0.50979392  0.90428747  0.59073625    -0.14600
C23         C  0.51508897  0.08273070  0.58245923    -0.14600
C24         C  0.51555036  0.07316649  0.40842377    -0.14600
H25         H  0.52324123  0.80337235  0.46243124     0.18300
H26         H  0.52377154  0.80882202  0.55562507     0.18300
H27         H  0.50893075  0.16960354  0.44409374     0.18300
H28         H  0.50883783  0.17474247  0.53766278     0.18300
H29         H  0.50723193  0.93031805  0.32264494     0.16600
H30         H  0.51153719  0.02501445  0.31722999     0.16600
H31         H  0.50301245  0.95143096  0.68141004     0.16600
H32         H  0.50819367  0.04474625  0.67747141     0.16600
H33         H  0.49657302  0.94966230  0.50163553     0.29900
H34         H  0.52439030  0.02713341  0.49783043     0.29900
N35         N  0.91292444  0.49813303  0.49964444    -0.32900
N36         N  0.98955895  0.42494441  0.49344744    -0.53400
N37         N  0.06295776  0.50147440  0.49630085    -0.32900
N38         N  0.98634148  0.57481755  0.50194750    -0.53400
C39         C  0.88528897  0.45842861  0.49381806     0.30700
C40         C  0.88365740  0.53741638  0.49813961     0.30700
C41         C  0.09231481  0.46218848  0.49832422     0.30700
C42         C  0.09057459  0.54133791  0.50144312     0.30700
C43         C  0.95076198  0.39526687  0.49288482     0.39300
C44         C  0.02973085  0.39656879  0.49381733     0.39300
C45         C  0.94594966  0.60256010  0.50609453     0.39300
C46         C  0.02486351  0.60459597  0.50551631     0.39300
C47         C  0.83775181  0.47260943  0.48961641    -0.18200
C48         C  0.83669955  0.52238629  0.49236170    -0.18200
C49         C  0.13925115  0.47738664  0.50359098    -0.18200
C50         C  0.13816743  0.52717686  0.50541033    -0.18200
C51         C  0.96646464  0.34770429  0.49251234    -0.19200
C52         C  0.01580705  0.34846565  0.49313323    -0.19200
C53         C  0.95884488  0.65030586  0.51243986    -0.19200
C54         C  0.00825195  0.65164945  0.51209262    -0.19200
C55         C  0.90113901  0.40958118  0.49261138    -0.14600
C56         C  0.89731819  0.58651660  0.50307334    -0.14600
C57         C  0.07478111  0.59028373  0.50386918    -0.14600
C58         C  0.07878862  0.41277934  0.49624002    -0.14600
H59         H  0.80698161  0.44947233  0.48498148     0.18300
H60         H  0.80484887  0.54491781  0.49042695     0.18300
H61         H  0.17106922  0.45489023  0.50632798     0.18300
H62         H  0.16895231  0.55030181  0.50998568     0.18300
H63         H  0.94475120  0.31547182  0.49226205     0.16600
H64         H  0.03826480  0.31658958  0.49357294     0.16600
H65         H  0.93509217  0.68116817  0.51681085     0.16600
H66         H  0.02900833  0.68403309  0.51662432     0.16600
H67         H  0.94904980  0.49837840  0.50748539     0.29900
H68         H  0.02658435  0.50109253  0.48982915     0.29900
N69         N  0.50852381  0.50746262  0.94129679    -0.32900
N70         N  0.58260063  0.50500931  0.01502181    -0.53400
N71         N  0.50821076  0.50692465  0.08971735    -0.32900
N72         N  0.43439513  0.50408497  0.01585104    -0.53400
C73         C  0.54776565  0.50367488  0.91309146     0.30700
C74         C  0.46949134  0.50233722  0.91336684     0.30700
C75         C  0.54763112  0.50045894  0.11701823     0.30700
C76         C  0.46916441  0.50023482  0.11765074     0.30700
C77         C  0.61135257  0.50858181  0.97610300     0.39300
C78         C  0.61109586  0.50819728  0.05397894     0.39300
C79         C  0.40566746  0.50522354  0.97684086     0.39300
C80         C  0.40549078  0.50563976  0.05490058     0.39300
C81         C  0.53344493  0.49731529  0.86655117    -0.18200
C82         C  0.48410283  0.49641169  0.86673056    -0.18200
C83         C  0.53341736  0.49064538  0.16306062    -0.18200
C84         C  0.48398544  0.49047699  0.16344249    -0.18200
C85         C  0.65852579  0.51326163  0.99087476    -0.19200
C86         C  0.65830267  0.51310753  0.03970707    -0.19200
C87         C  0.35825695  0.50699099  0.99163278    -0.19200
C88         C  0.35814404  0.50719279  0.04029471    -0.19200
C89         C  0.59630411  0.50644889  0.92736106    -0.14600
C90         C  0.42085403  0.50301525  0.92797141    -0.14600
C91         C  0.42039955  0.50325784  0.10365093    -0.14600
C92         C  0.59617235  0.50467711  0.10242466    -0.14600
H93         H  0.55620285  0.49353488  0.83561112     0.18300
H94         H  0.46153618  0.49177157  0.83594631     0.18300
H95         H  0.55626371  0.48426309  0.19335556     0.18300
H96         H  0.46151053  0.48380567  0.19401074     0.18300
H97         H  0.69023853  0.51628217  0.96910536     0.16600
H98         H  0.68956168  0.51585265  0.06215188     0.16600
H99         H  0.32639729  0.50775861  0.97016133     0.16600
H100        H  0.32622438  0.50770983  0.06197593     0.16600
H101        H  0.50830327  0.51581876  0.97694385     0.29900
H102        H  0.50802653  0.51933312  0.05520564     0.29900
N103        N  0.00877893  0.56736418  0.01724389    -0.32900
N104        N  0.01325952  0.51142656  0.92957916    -0.53400
N105        N  0.01317621  0.42164595  0.98589409    -0.32900
N106        N  0.01378915  0.47782576  0.07361893    -0.53400
C107        C  0.01526504  0.60370245  0.98579967     0.30700
C108        C  0.01505960  0.58629247  0.06109435     0.30700
C109        C  0.01729201  0.40239564  0.94183220     0.30700
C110        C  0.01816600  0.38503165  0.01740373     0.30700
C111        C  0.00835318  0.55625728  0.91037567     0.39300
C112        C  0.00948165  0.47872231  0.89381717     0.39300
C113        C  0.00912686  0.51046563  0.10938731     0.39300
C114        C  0.01132920  0.43294048  0.09299860     0.39300
C115        C  0.02492247  0.64607438  0.01048484    -0.18200
C116        C  0.02460164  0.63509764  0.05771050    -0.18200
C117        C  0.02459694  0.35300385  0.94520748    -0.18200
C118        C  0.02530348  0.34205719  0.99261347    -0.18200
C119        C  0.00241568  0.55216866  0.86195293    -0.19200
C120        C  0.00322074  0.50332723  0.85144090    -0.19200
C121        C  0.00459581  0.48591764  0.15195137    -0.19200
C122        C  0.00601699  0.43704217  0.14156966    -0.19200
C123        C  0.01054820  0.60092606  0.93562959    -0.14600
C124        C  0.01071451  0.56201466  0.10472402    -0.14600
C125        C  0.01444169  0.38820653  0.06777029    -0.14600
C126        C  0.01251253  0.42707737  0.89820967    -0.14600
H127        H  0.03134666  0.68173766  0.99661984     0.18300
H128        H  0.03054394  0.66043475  0.08635637     0.18300
H129        H  0.02850320  0.32727907  0.91644214     0.18300
H130        H  0.03003799  0.30608842  0.00674514     0.18300
H131        H  0.99809865  0.58135501  0.83682838     0.16600
H132        H  0.99967168  0.48791814  0.81639332     0.16600
H133        H  0.00087149  0.50142564  0.18699365     0.16600
H134        H  0.00343819  0.40784156  0.16686619     0.16600
H135        H  0.99566290  0.53330741  0.00978907     0.29900
H136        H  0.00349148  0.45685912  0.99363698     0.29900
N137        N  0.56491763  0.00113074  0.99575044    -0.32900
N138        N  0.48858562  0.07597039  0.99437853    -0.53400
N139        N  0.41476940  0.00107237  0.00057600    -0.32900
N140        N  0.49115096  0.92633270  0.00231710    -0.53400
C141        C  0.59247693  0.04116119  0.99950427     0.30700
C142        C  0.59375443  0.96201118  0.00293769     0.30700
C143        C  0.38558138  0.04038414  0.99745827     0.30700
C144        C  0.38676458  0.96127213  0.00013437     0.30700
C145        C  0.52755774  0.10523749  0.99339376     0.39300
C146        C  0.44872785  0.10482378  0.99430407     0.39300
C147        C  0.53082564  0.89724322  0.00144928     0.39300
C148        C  0.45193309  0.89730549  0.00163463     0.39300
C149        C  0.63954358  0.02713637  0.00793127    -0.18200
C150        C  0.64033400  0.97733775  0.01005421    -0.18200
C151        C  0.33831920  0.02536961  0.99602340    -0.18200
C152        C  0.33906994  0.97550326  0.99759041    -0.18200
C153        C  0.51180694  0.15305077  0.99265882    -0.19200
C154        C  0.46245452  0.15270490  0.99313716    -0.19200
C155        C  0.51632883  0.84939356  0.00061919    -0.19200
C156        C  0.46700142  0.84945359  0.00075924    -0.19200
C157        C  0.57712362  0.09020489  0.99578941    -0.14600
C158        C  0.58002324  0.91265509  0.00258795    -0.14600
C159        C  0.40246412  0.91231902  0.00114963    -0.14600
C160        C  0.39981064  0.08953900  0.99571129    -0.14600
H161        H  0.67024749  0.05039429  0.01232488     0.18300
H162        H  0.67166610  0.95494672  0.01642868     0.18300
H163        H  0.30655893  0.04798601  0.99356641     0.18300
H164        H  0.30799568  0.95232247  0.99657302     0.18300
H165        H  0.53308511  0.18542504  0.99266854     0.16600
H166        H  0.43931347  0.18432436  0.99312193     0.16600
H167        H  0.53850836  0.81725265  0.00015712     0.16600
H168        H  0.44493612  0.81749465  0.00018944     0.16600
H169        H  0.52939618  0.00047527  0.98539615     0.29900
H170        H  0.45151785  0.00135924  0.00433805     0.29900
O171        O  0.80892884  0.70734237  0.86187955    -0.74800
C172        C  0.70552160  0.83270792  0.85377846     0.86300
O173        O  0.67773646  0.66191792  0.76093906    -0.75900
O174        O  0.69572392  0.82804343  0.70287453    -0.77400
O175        O  0.86223767  0.79895897  0.71707743    -0.77200
O176        O  0.86705339  0.71302561  0.80774223    -0.75800
Zn177      Zn  0.75001831  0.73429504  0.82882095     1.55700
O178        O  0.80485253  0.85505643  0.72738524    -0.77200
Cd179      Cd  0.83143059  0.73830767  0.74863995     1.59700
Cd180      Cd  0.72061498  0.70860629  0.71965596     1.59600
O181        O  0.84056612  0.68470505  0.69919221    -0.77200
O182        O  0.76164713  0.74935593  0.76292880    -1.87700
Cd183      Cd  0.74647040  0.81951539  0.75429799     1.59900
O184        O  0.76627407  0.66728839  0.67528718    -0.77100
O185        O  0.71497368  0.85194759  0.81393437    -0.75800
C186        C  0.67617072  0.65770330  0.80603396     0.86700
C187        C  0.85214575  0.70059793  0.84859043     0.86400
O188        O  0.71902784  0.78988675  0.86378011    -0.74700
C189        C  0.84556274  0.84160335  0.71131054     0.87200
O190        O  0.70185848  0.68303387  0.83321779    -0.74800
C191        C  0.81187430  0.66198063  0.67257351     0.87300
C192        C  0.67090946  0.80008528  0.67722455     0.87700
O193        O  0.67559189  0.75399269  0.67853121    -0.77300
O194        O  0.15127489  0.70449623  0.78830452    -0.74800
C195        C  0.17130109  0.83584973  0.69583648     0.86300
O196        O  0.25204538  0.66092289  0.65635531    -0.75900
O197        O  0.32690757  0.81709416  0.69097353    -0.77400
O198        O  0.29235439  0.78590830  0.85078369    -0.77200
O199        O  0.20453414  0.70005342  0.84678933    -0.75800
Zn200      Zn  0.18681813  0.73332678  0.73265055     1.55700
O201        O  0.29577165  0.84626389  0.79877102    -0.77200
Cd202      Cd  0.26494159  0.72778065  0.81453485     1.59700
Cd203      Cd  0.29707775  0.69800393  0.70556432     1.59600
O204        O  0.31428027  0.67451769  0.82266116    -0.77200
O205        O  0.25479249  0.74198783  0.74625838    -1.87700
Cd206      Cd  0.27092540  0.81175419  0.73711325     1.59900
O207        O  0.33354081  0.64739952  0.75038377    -0.77100
O208        O  0.21415464  0.84776209  0.70579283    -0.75800
C209        C  0.20610515  0.66088727  0.65359246     0.86700
C210        C  0.16299189  0.69224454  0.83017716     0.86400
O211        O  0.15463352  0.79437818  0.70614888    -0.74700
C212        C  0.30353174  0.82898089  0.83989643     0.87200
O213        O  0.17989840  0.68569708  0.68132200    -0.74800
C214        C  0.33638772  0.64520538  0.79571301     0.87300
C215        C  0.35405369  0.78791120  0.66852821     0.87700
O216        O  0.34833827  0.74188631  0.66970183    -0.77300
O217        O  0.79114422  0.14750761  0.72723752    -0.74800
C218        C  0.70310174  0.18087809  0.85277335     0.86300
O219        O  0.66485012  0.25313163  0.67320394    -0.75900
O220        O  0.70263995  0.32757210  0.83091464    -0.77400
O221        O  0.86316870  0.29783213  0.78216280    -0.77200
O222        O  0.85040944  0.19781400  0.70839925    -0.75800
Zn223      Zn  0.73596438  0.18884222  0.74974033     1.55700
O224        O  0.81628243  0.30666183  0.84587173    -0.77200
Cd225      Cd  0.82187679  0.26310426  0.73214851     1.59700
Cd226      Cd  0.71023681  0.29857757  0.71395755     1.59600
O227        O  0.82525127  0.30822189  0.67522312    -0.77200
O228        O  0.75418546  0.25624109  0.75387120    -1.87700
Cd229      Cd  0.75256026  0.27439579  0.82250496     1.59900
O230        O  0.75172067  0.33893525  0.66484229    -0.77100
O231        O  0.72512875  0.21934412  0.86458101    -0.75800
C232        C  0.66275427  0.20687420  0.67165324     0.86700
C233        C  0.83197225  0.15585644  0.70876585     0.86400
O234        O  0.70393465  0.16475429  0.81042896    -0.74700
C235        C  0.85545382  0.31423894  0.82371001     0.87200
O236        O  0.68798700  0.18034628  0.69853659    -0.74800
C237        C  0.79625788  0.33603048  0.65375542     0.87300
C238        C  0.67401854  0.35178668  0.80528825     0.87700
O239        O  0.67100176  0.34563084  0.76029902    -0.77300
O240        O  0.22980219  0.30001152  0.63265044    -0.74800
C241        C  0.36239281  0.20866409  0.65791634     0.86300
O242        O  0.18306930  0.17776885  0.73521888    -0.75900
O243        O  0.34012352  0.20035407  0.80642571    -0.77400
O244        O  0.31020725  0.37002206  0.77489466    -0.77200
O245        O  0.22621806  0.36436583  0.68050922    -0.75800
Zn246      Zn  0.25935271  0.24491282  0.66934136     1.55700
O247        O  0.36546271  0.31249515  0.78744727    -0.77200
Cd248      Cd  0.25379468  0.33435955  0.74259021     1.59700
Cd249      Cd  0.22289375  0.22526845  0.77801319     1.59600
O250        O  0.19800336  0.34548221  0.78863788    -0.77200
O251        O  0.26723276  0.26335416  0.73578860    -1.87700
Cd252      Cd  0.33547982  0.25210491  0.75483028     1.59900
O253        O  0.17401105  0.27283815  0.81303763    -0.77100
O254        O  0.37432192  0.22331257  0.69905602    -0.75800
C255        C  0.18315885  0.16991701  0.69053486     0.86700
C256        C  0.21644607  0.34329823  0.64152631     0.86400
O257        O  0.32065313  0.21592998  0.64091727    -0.74700
C258        C  0.34938195  0.35536064  0.79338767     0.87200
O259        O  0.21054274  0.19258439  0.66250109    -0.74800
C260        C  0.16982661  0.31902146  0.81228788     0.87300
C261        C  0.30977969  0.17870275  0.83213377     0.87700
O262        O  0.26441795  0.18457979  0.82699229    -0.77300
O263        O  0.73646960  0.79641249  0.13710401    -0.74800
C264        C  0.86371924  0.69436982  0.17306723     0.86300
O265        O  0.67957710  0.67495531  0.23831151    -0.75900
O266        O  0.83778694  0.69818328  0.31924367    -0.77400
O267        O  0.80944304  0.86529356  0.27721024    -0.77200
O268        O  0.71876660  0.85432124  0.18989138    -0.75800
Zn269      Zn  0.76264265  0.73989854  0.17616614     1.55700
O270        O  0.86526365  0.80899505  0.29265012    -0.77200
Cd271      Cd  0.75125244  0.82725449  0.25108652     1.59700
Cd272      Cd  0.72300334  0.71681883  0.28321790     1.59600
O273        O  0.70027984  0.83740005  0.30306136    -0.77200
O274        O  0.76735716  0.75703104  0.24324901    -1.87700
Cd275      Cd  0.83484939  0.74668522  0.26477731     1.59900
O276        O  0.67928808  0.76282985  0.32451797    -0.77100
O277        O  0.87449751  0.71200908  0.21330395    -0.75800
C278        C  0.68055777  0.66976067  0.19328643     0.86700
C279        C  0.71591821  0.83638975  0.14831445     0.86400
O280        O  0.82366293  0.70355148  0.15286420    -0.74700
C281        C  0.84930430  0.85221286  0.29547922     0.87200
O282        O  0.71041838  0.69182222  0.16737994    -0.74800
C283        C  0.67527826  0.80884098  0.32786846     0.87300
C284        C  0.80762628  0.67134156  0.33984330     0.87700
O285        O  0.76296411  0.67209605  0.32950075    -0.77300
O286        O  0.28681325  0.85351057  0.19930362    -0.74800
C287        C  0.16716049  0.85571609  0.30902446     0.86300
O288        O  0.33364713  0.76080774  0.33749813    -0.75900
O289        O  0.16858509  0.70760006  0.33177850    -0.77400
O290        O  0.19173618  0.69787141  0.16790035    -0.77200
O291        O  0.27319008  0.79354170  0.14795907    -0.75800
Zn292      Zn  0.26308658  0.82608076  0.26280597     1.55700
O293        O  0.13755876  0.71380778  0.22432503    -0.77200
Cd294      Cd  0.25148170  0.73689446  0.19071511     1.59700
Cd295      Cd  0.28556280  0.71559414  0.30069468     1.59600
O296        O  0.30543066  0.68677633  0.18431262    -0.77200
O297        O  0.24503701  0.75813233  0.25807989    -1.87700
Cd298      Cd  0.17557244  0.75183983  0.27501393     1.59900
O299        O  0.32447123  0.66487535  0.25809279    -0.77100
O300        O  0.14580340  0.81600860  0.30086273    -0.75800
C301        C  0.34116877  0.80640557  0.33560993     0.86700
C302        C  0.28919774  0.83553544  0.15762623     0.86400
O303        O  0.20957185  0.86383349  0.29430323    -0.74700
C304        C  0.15060804  0.69169137  0.18668492     0.87200
O305        O  0.31754972  0.83409043  0.30831185    -0.74800
C306        C  0.32843673  0.66015274  0.21301834     0.87300
C307        C  0.19570980  0.68181089  0.35739393     0.87700
O308        O  0.24118375  0.67944769  0.35082372    -0.77300
O309        O  0.71902251  0.13851329  0.18369407    -0.74800
C310        C  0.84530526  0.14767619  0.28758299     0.86300
O311        O  0.67203667  0.23345966  0.31703180    -0.75900
O312        O  0.83715610  0.30258261  0.30030059    -0.77400
O313        O  0.81106176  0.28309766  0.13381587    -0.77200
O314        O  0.71912562  0.19944383  0.13202182    -0.75800
Zn315      Zn  0.74763955  0.16977561  0.24297328     1.55700
O316        O  0.86620163  0.27742910  0.19079128    -0.77200
Cd317      Cd  0.75004234  0.25629981  0.16725674     1.59700
Cd318      Cd  0.71852220  0.27917006  0.27799817     1.59600
O319        O  0.70026306  0.31067816  0.16195222    -0.77200
O320        O  0.76096533  0.23855446  0.23499718    -1.87700
Cd321      Cd  0.83028707  0.25032853  0.24922329     1.59900
O322        O  0.67753550  0.32757006  0.23620352    -0.77100
O323        O  0.86244533  0.18957143  0.28006176    -0.75800
C324        C  0.66893211  0.18726599  0.31674777     0.86700
C325        C  0.70757385  0.15669421  0.14380468     0.86400
O326        O  0.80427207  0.13515102  0.27222552    -0.74700
C327        C  0.85338124  0.28988614  0.14924983     0.87200
O328        O  0.69584574  0.16104105  0.29085328    -0.74800
C329        C  0.67536851  0.33485353  0.19146710     0.87300
C330        C  0.80802091  0.32443141  0.32774960     0.87700
O331        O  0.76249531  0.31918001  0.32482414    -0.77300
N332        N  0.00115657  0.00525469  0.59030694    -0.32900
N333        N  0.07909038  0.00696543  0.52154168    -0.53400
N334        N  0.00876123  0.01031259  0.44252413    -0.32900
N335        N  0.93129927  0.00303672  0.51142249    -0.53400
C336        C  0.03851696  0.00176454  0.62072091     0.30700
C337        C  0.96038987  0.99991753  0.61572079     0.30700
C338        C  0.04986221  0.00654134  0.41716446     0.30700
C339        C  0.97166924  0.00510236  0.41195615     0.30700
C340        C  0.10572055  0.00828143  0.56187665     0.39300
C341        C  0.10978877  0.01008667  0.48430034     0.39300
C342        C  0.90058630  0.00219542  0.54886378     0.39300
C343        C  0.90438920  0.00429270  0.47130251     0.39300
C344        C  0.02097452  0.99529238  0.66626855    -0.18200
C345        C  0.97174607  0.99410170  0.66308447    -0.18200
C346        C  0.03875246  0.00054239  0.36966926    -0.18200
C347        C  0.98946552  0.99966779  0.36640061    -0.18200
C348        C  0.15368074  0.01188298  0.55025928    -0.19200
C349        C  0.15633546  0.01294228  0.50153050    -0.19200
C350        C  0.85390505  0.00221086  0.53227407    -0.19200
C351        C  0.85626404  0.00364653  0.48373901    -0.19200
C352        C  0.08803464  0.00470826  0.60920966    -0.14600
C353        C  0.91299603  0.00025316  0.59801836    -0.14600
C354        C  0.92214290  0.00461235  0.42347271    -0.14600
C355        C  0.09735090  0.00844456  0.43491981    -0.14600
H356        H  0.04138731  0.99174988  0.69861064     0.18300
H357        H  0.94710732  0.98931345  0.69236300     0.18300
H358        H  0.06361934  0.99673779  0.34035800     0.18300
H359        H  0.96906108  0.99489476  0.33418979     0.18300
H360        H  0.18373012  0.01317429  0.57439663     0.16600
H361        H  0.18925172  0.01511460  0.48146203     0.16600
H362        H  0.82112847  0.00109463  0.55275237     0.16600
H363        H  0.82545907  0.00398669  0.46079149     0.16600
H364        H  0.00291425  0.01328203  0.55480603     0.29900
H365        H  0.00648155  0.01893456  0.47799779     0.29900
N366        N  0.13588336  0.00645171  0.40042565     0.00200
C367        C  0.16548566  0.04413845  0.39238084     0.02800
C368        C  0.21163066  0.02769031  0.38423923    -0.20000
C369        C  0.20995829  0.97823407  0.38502827    -0.20300
C370        C  0.16275406  0.96602110  0.39314374     0.02700
H371        H  0.24148317  0.04882426  0.37143489     0.16500
H372        H  0.23824478  0.95424263  0.37261307     0.16600
O373        O  0.29865524  0.20855985  0.15545128    -0.74800
C374        C  0.16893029  0.29929273  0.17397086     0.86300
O375        O  0.34208517  0.33742059  0.26177430    -0.75900
O376        O  0.18248360  0.30686890  0.32315513    -0.77400
O377        O  0.22044705  0.14217482  0.29789072    -0.77200
O378        O  0.29862166  0.14385753  0.20223386    -0.75800
Zn379      Zn  0.27200155  0.26521032  0.19226778     1.55700
O380        O  0.16000428  0.19553035  0.30169399    -0.77200
Cd381      Cd  0.27599266  0.17704828  0.26479577     1.59700
Cd382      Cd  0.30208695  0.28715946  0.30263702     1.59600
O383        O  0.33251020  0.16768564  0.30942083    -0.77200
O384        O  0.26113413  0.24753569  0.25771223    -1.87700
Cd385      Cd  0.19111478  0.25658848  0.27141912     1.59900
O386        O  0.35154708  0.24038501  0.33822624    -0.77100
O387        O  0.15420306  0.28453751  0.21410295    -0.75800
C388        C  0.34519716  0.34212686  0.21670949     0.86700
C389        C  0.30786422  0.16403197  0.16284716     0.86400
O390        O  0.21241316  0.29403478  0.16079916    -0.74700
C391        C  0.17850154  0.15446975  0.31139132     0.87200
O392        O  0.32137087  0.31607777  0.18839205    -0.74800
C393        C  0.35826805  0.19449645  0.33528690     0.87300
C394        C  0.20944658  0.32808347  0.35250867     0.87700
O395        O  0.25537039  0.32407744  0.35123637    -0.77300
N396        N  0.01357331  0.34274268  0.09372209     0.00200
C397        C  0.05287806  0.31394228  0.10078732     0.02800
C398        C  0.04076871  0.26578689  0.10260698    -0.20000
C399        C  0.99246964  0.26376178  0.09647535    -0.20300
C400        C  0.97661114  0.31076050  0.09125772     0.02700
H401        H  0.06409122  0.23568144  0.11153598     0.16500
H402        H  0.97057537  0.23180905  0.10011699     0.16600
N403        N  0.36230089  0.12650436  0.99707338     0.00200
C404        C  0.34280984  0.15209213  0.96048230     0.02800
C405        C  0.31343522  0.18887939  0.97681941    -0.20000
C406        C  0.31325185  0.18586771  0.02487241    -0.20300
C407        C  0.34264003  0.14740980  0.03640969     0.02700
H408        H  0.29209320  0.21359326  0.95574852     0.16500
H409        H  0.29193091  0.20788895  0.04889256     0.16600
N410        N  0.51512757  0.10913731  0.37063465     0.00200
C411        C  0.55232833  0.11365680  0.33957457     0.02800
C412        C  0.53548612  0.11949848  0.29403005    -0.20000
C413        C  0.48669824  0.12238227  0.29710402    -0.20300
C414        C  0.47511477  0.11793278  0.34439220     0.02700
H415        H  0.55646234  0.12915965  0.26317618     0.16500
H416        H  0.46308580  0.13440585  0.26904328     0.16600
N417        N  0.88800524  0.00258768  0.38446880     0.00200
C418        C  0.85883436  0.04084333  0.37437359     0.02800
C419        C  0.81257116  0.02554365  0.36639504    -0.20000
C420        C  0.81360179  0.97624054  0.36822088    -0.20300
C421        C  0.86050648  0.96287132  0.37707448     0.02700
H422        H  0.78329524  0.04706219  0.35233793     0.16500
H423        H  0.78528384  0.95287933  0.35572743     0.16600
N424        N  0.61381275  0.12723285  0.99973919     0.00200
C425        C  0.62189063  0.16088038  0.96554136     0.02800
C426        C  0.62875589  0.20580710  0.98569463    -0.20000
C427        C  0.62762861  0.19951940  0.03364524    -0.20300
C428        C  0.62078387  0.15080546  0.04141930     0.02700
H429        H  0.64109606  0.23800463  0.96780979     0.16500
H430        H  0.63937433  0.22591961  0.05947140     0.16600
N431        N  0.63278950  0.50464760  0.13903843     0.00200
C432        C  0.65454119  0.46594300  0.15999172     0.02800
C433        C  0.69098430  0.48025309  0.18960417    -0.20000
C434        C  0.69167084  0.52937741  0.18832288    -0.20300
C435        C  0.65558853  0.54349723  0.15800272     0.02700
H436        H  0.71310471  0.45733730  0.21179292     0.16500
H437        H  0.71429711  0.55260322  0.20946882     0.16600
N438        N  0.86482591  0.37194098  0.49095774     0.00200
C439        C  0.85540620  0.34290035  0.45304043     0.02800
C440        C  0.83609891  0.29957398  0.46736713    -0.20000
C441        C  0.83164199  0.30192642  0.51535985    -0.20300
C442        C  0.84852389  0.34652970  0.52895808     0.02700
H443        H  0.82157151  0.27153841  0.44482627     0.16500
H444        H  0.81348586  0.27587007  0.53749064     0.16600
N445        N  0.38380276  0.50059679  0.14071637     0.00200
C446        C  0.35823970  0.45955096  0.14833706     0.02800
C447        C  0.31061971  0.47035795  0.15694836    -0.20000
C448        C  0.30673329  0.51948662  0.15817575    -0.20300
C449        C  0.35195706  0.53725355  0.14960122     0.02700
H450        H  0.28336772  0.44550300  0.16897636     0.16500
H451        H  0.27581648  0.53978208  0.17074962     0.16600
N452        N  0.00896226  0.59183863  0.14701883     0.00200
C453        C  0.96830259  0.60021408  0.17223897     0.02800
C454        C  0.97945238  0.60483289  0.21962890    -0.20000
C455        C  0.02851699  0.60223167  0.22299716    -0.20300
C456        C  0.04611932  0.59671450  0.17750315     0.02700
H457        H  0.95557654  0.61740283  0.24746249     0.16500
H458        H  0.04894337  0.61285028  0.25384589     0.16600
N459        N  0.36600042  0.87498163  0.99984489     0.00200
C460        C  0.35690905  0.84665698  0.96138543     0.02800
C461        C  0.34028207  0.80197398  0.97497489    -0.20000
C462        C  0.33746603  0.80264800  0.02319246    -0.20300
C463        C  0.35246474  0.84771015  0.03767802     0.02700
H464        H  0.32653302  0.77385972  0.95205930     0.16500
H465        H  0.32106653  0.77516392  0.04500011     0.16600
N466        N  0.50915720  0.85439615  0.38381039     0.00200
C467        C  0.47090998  0.82716719  0.37011084     0.02800
C468        C  0.48528131  0.78639790  0.34557519    -0.20000
C469        C  0.53391601  0.78707143  0.34416816    -0.20300
C470        C  0.54772533  0.82821403  0.36793250     0.02700
H471        H  0.46251810  0.75917101  0.32988700     0.16500
H472        H  0.55701381  0.76037250  0.32735125     0.16600
N473        N  0.11183600  0.62725696  0.50686119     0.00200
C474        C  0.11998420  0.65179318  0.54783194     0.02800
C475        C  0.12310109  0.70076465  0.53901087    -0.20000
C476        C  0.12179042  0.70619577  0.49095754    -0.20300
C477        C  0.11773121  0.66041305  0.47189374     0.02700
H478        H  0.13482114  0.72827621  0.56371384     0.16500
H479        H  0.13219473  0.73859430  0.47221071     0.16600
N480        N  0.61820677  0.87611463  0.00340149     0.00200
C481        C  0.62646605  0.84679606  0.96537222     0.02800
C482        C  0.63478220  0.79985403  0.97961141    -0.20000
C483        C  0.63438081  0.80026091  0.02793763    -0.20300
C484        C  0.62673136  0.84763181  0.04192916     0.02700
H485        H  0.64754204  0.77020830  0.95764723     0.16500
H486        H  0.64742399  0.77100357  0.04998387     0.16600
N487        N  0.11740032  0.37695197  0.49927235     0.00200
C488        C  0.12719740  0.34581586  0.46311728     0.02800
C489        C  0.13275936  0.29939414  0.48009834    -0.20000
C490        C  0.13044014  0.30250825  0.52836635    -0.20300
C491        C  0.12424943  0.35086294  0.53942983     0.02700
H492        H  0.14611381  0.26835803  0.46043966     0.16500
H493        H  0.14218086  0.27430904  0.55233586     0.16600
N494        N  0.01063047  0.39777324  0.85549061     0.00200
C495        C  0.97064178  0.39237574  0.82870165     0.02800
C496        C  0.98313811  0.38542126  0.78182877    -0.20000
C497        C  0.03221197  0.38405401  0.77992649    -0.20300
C498        C  0.04832709  0.39029942  0.82566279     0.02700
H499        H  0.95940943  0.37493125  0.75335972     0.16500
H500        H  0.05341031  0.37245069  0.74969526     0.16600
N501        N  0.12192627  0.00282423  0.64829759     0.00200
C502        C  0.13996071  0.04069025  0.67356030     0.02800
C503        C  0.16441988  0.02509503  0.71303384    -0.20000
C504        C  0.16142131  0.97608259  0.71335244    -0.20300
C505        C  0.13523854  0.96324013  0.67403401     0.02700
H506        H  0.18307101  0.04722108  0.73866585     0.16500
H507        H  0.17733612  0.95205932  0.73924627     0.16600
N508        N  0.51445741  0.12222145  0.61701580     0.00200
C509        C  0.55222803  0.13049631  0.64646954     0.02800
C510        C  0.53656866  0.13924288  0.69214635    -0.20000
C511        C  0.48779014  0.14010962  0.69076698    -0.20300
C512        C  0.47510060  0.13104795  0.64444416     0.02700
H513        H  0.55802599  0.15213871  0.72145010     0.16500
H514        H  0.46451178  0.15323013  0.71886118     0.16600
N515        N  0.38492454  0.49862062  0.89078185     0.00200
C516        C  0.35882889  0.45763354  0.88630111     0.02800
C517        C  0.31086538  0.46920866  0.88102222    -0.20000
C518        C  0.30806650  0.51837261  0.87657563    -0.20300
C519        C  0.35427045  0.53542215  0.88011621     0.02700
H520        H  0.28263683  0.44453423  0.87101723     0.16500
H521        H  0.27728123  0.53805243  0.86310965     0.16600
N522        N  0.87437224  0.99661951  0.63215013     0.00200
C523        C  0.84383061  0.03333561  0.64322840     0.02800
C524        C  0.79944785  0.01571535  0.65562514    -0.20000
C525        C  0.80302322  0.96636832  0.65347884    -0.20300
C526        C  0.84957046  0.95551242  0.64009885     0.02700
H527        H  0.76972333  0.03614099  0.67057734     0.16500
H528        H  0.77666412  0.94129241  0.66688831     0.16600
N529        N  0.00828963  0.64658588  0.91006449     0.00200
C530        C  0.97096995  0.67835526  0.91544784     0.02800
C531        C  0.98623716  0.72564068  0.91411350    -0.20000
C532        C  0.03443784  0.72401295  0.90675982    -0.20300
C533        C  0.04697755  0.67580204  0.90431077     0.02700
H534        H  0.96390034  0.75783908  0.91278715     0.16500
H535        H  0.05725330  0.75465269  0.89958955     0.16600
N536        N  0.51164215  0.86869330  0.62868824     0.03400
C537        C  0.47311085  0.85853949  0.65655748     0.02800
C538        C  0.48685182  0.85246397  0.70305208    -0.20000
C539        C  0.53557978  0.85642447  0.70396869    -0.20300
C540        C  0.55010816  0.86456779  0.65796272     0.02700
H541        H  0.46475989  0.83947405  0.73186348     0.16500
H542        H  0.55832441  0.84681236  0.73356879     0.16600
N543        N  0.63241153  0.50592845  0.88996052     0.00200
C544        C  0.66030840  0.54472621  0.88056865     0.02800
C545        C  0.70694656  0.53020893  0.87180509    -0.20000
C546        C  0.70724217  0.48083623  0.87231268    -0.20300
C547        C  0.66075097  0.46670128  0.88127045     0.02700
H548        H  0.73551840  0.55244246  0.85794510     0.16500
H549        H  0.73608079  0.45816862  0.85879069     0.16600
N550        N  0.85910001  0.62253024  0.50552445     0.00200
C551        C  0.83537704  0.64457906  0.46925559     0.02800
C552        C  0.80292851  0.67848462  0.48587986    -0.20000
C553        C  0.80518494  0.67699369  0.53398534    -0.20300
C554        C  0.83892481  0.64220918  0.54513217     0.02700
H555        H  0.77864956  0.70055015  0.46509933     0.16500
H556        H  0.78288951  0.69750113  0.55842581     0.16600
C557        C  0.15644146  0.35855943  0.42273988    -0.09500
C558        C  0.18477327  0.35284627  0.39055520    -0.11100
C559        C  0.37176395  0.38101892  0.19539982    -0.09500
C560        C  0.37683174  0.41661521  0.17106909    -0.11100
C561        C  0.39850685  0.17073018  0.35782921    -0.09500
C562        C  0.43338824  0.14446519  0.36122125    -0.11100
C563        C  0.34389632  0.13098762  0.08460759    -0.09500
C564        C  0.33003744  0.13725282  0.12472765    -0.11100
C565        C  0.13438079  0.32076624  0.14229734    -0.09500
C566        C  0.09864526  0.32821308  0.11924489    -0.11100
C567        C  0.15033451  0.08812871  0.36949343    -0.09500
C568        C  0.15415715  0.12141982  0.34221647    -0.11100
C569        C  0.84640501  0.35807523  0.40507533    -0.09500
C570        C  0.82853903  0.35112478  0.36665523    -0.11100
C571        C  0.64075759  0.41601887  0.15975038    -0.09500
C572        C  0.64835117  0.37522607  0.17311695    -0.11100
C573        C  0.67601209  0.13157306  0.11199964    -0.09500
C574        C  0.64651111  0.12981806  0.08073507    -0.11100
C575        C  0.87419370  0.08261809  0.34791412    -0.09500
C576        C  0.86963035  0.11447273  0.31889764    -0.11100
C577        C  0.63151404  0.16268425  0.34260811    -0.09500
C578        C  0.59692555  0.13761320  0.35057408    -0.11100
C579        C  0.92693001  0.32108386  0.10085657    -0.09500
C580        C  0.88898067  0.31158888  0.11917249    -0.11100
C581        C  0.17241169  0.65770645  0.39636974    -0.09500
C582        C  0.14569158  0.65075241  0.42957066    -0.11100
C583        C  0.38021031  0.82703821  0.36217337    -0.09500
C584        C  0.42043949  0.83707235  0.37445077    -0.11100
C585        C  0.31454832  0.86046865  0.12026710    -0.09500
C586        C  0.33670358  0.86516173  0.08354812    -0.11100
C587        C  0.08852727  0.62406366  0.16552253    -0.09500
C588        C  0.11887443  0.65511137  0.16822087    -0.11100
C589        C  0.35541169  0.62051031  0.19222240    -0.09500
C590        C  0.36360303  0.58372592  0.17000762    -0.11100
C591        C  0.14607684  0.89117818  0.34037197    -0.09500
C592        C  0.14484604  0.92397321  0.36878222    -0.11100
C593        C  0.83699928  0.63411314  0.41938998    -0.09500
C594        C  0.82478853  0.64338691  0.37939097    -0.11100
C595        C  0.65133987  0.63366493  0.17089296    -0.09500
C596        C  0.64227002  0.59368826  0.15636247    -0.11100
C597        C  0.65442623  0.86295230  0.08266542    -0.09500
C598        C  0.68395933  0.85841772  0.11395536    -0.11100
C599        C  0.63789794  0.82938965  0.35715416    -0.09500
C600        C  0.59787522  0.83889317  0.37091541    -0.11100
C601        C  0.87349567  0.88684734  0.32504112    -0.09500
C602        C  0.87753349  0.92007341  0.35269827    -0.11100
C603        C  0.92812081  0.62809562  0.15406210    -0.09500
C604        C  0.89686610  0.65890257  0.15372252    -0.11100
C605        C  0.37545894  0.41740460  0.85770915    -0.09500
C606        C  0.37230870  0.38718116  0.82678845    -0.11100
C607        C  0.39681462  0.17920206  0.63262865    -0.09500
C608        C  0.43125069  0.15281373  0.62773087    -0.11100
C609        C  0.15431971  0.13146373  0.67139416    -0.09500
C610        C  0.13937999  0.09145425  0.66291821    -0.11100
C611        C  0.12945361  0.34334124  0.83440221    -0.09500
C612        C  0.09335681  0.36771156  0.83888899    -0.11100
C613        C  0.15337718  0.36830723  0.57809106    -0.09500
C614        C  0.18418643  0.36574806  0.60815561    -0.11100
C615        C  0.34247469  0.14107442  0.91064968    -0.09500
C616        C  0.32841538  0.15082686  0.87127020    -0.11100
C617        C  0.81525832  0.36087846  0.61298772    -0.09500
C618        C  0.83478880  0.36517056  0.57487396    -0.11100
C619        C  0.64853299  0.39011516  0.82952262    -0.09500
C620        C  0.64443384  0.42432685  0.85614605    -0.11100
C621        C  0.85819549  0.07998494  0.66051985    -0.09500
C622        C  0.85458963  0.11691077  0.68317172    -0.11100
C623        C  0.62834711  0.18222678  0.64221630    -0.09500
C624        C  0.59532359  0.15563644  0.63296592    -0.11100
C625        C  0.64634408  0.15099965  0.92120317    -0.09500
C626        C  0.67303756  0.15798926  0.88794625    -0.11100
C627        C  0.89181761  0.34512856  0.84363589    -0.09500
C628        C  0.92657504  0.37107985  0.84551608    -0.11100
C629        C  0.18088353  0.63677190  0.61584095    -0.09500
C630        C  0.15124934  0.63361186  0.58467441    -0.11100
C631        C  0.43034151  0.83403886  0.64090250    -0.09500
C632        C  0.39486179  0.80940369  0.64532964    -0.11100
C633        C  0.09210806  0.66262449  0.88338766    -0.09500
C634        C  0.12737506  0.67059900  0.86001903    -0.11100
C635        C  0.36682376  0.57468195  0.84875079    -0.09500
C636        C  0.36111013  0.60642432  0.81974568    -0.11100
C637        C  0.32776505  0.85677602  0.87586945    -0.09500
C638        C  0.34678742  0.86297340  0.91389340    -0.11100
C639        C  0.14153764  0.87199889  0.67340104    -0.09500
C640        C  0.12903568  0.91272872  0.66364226    -0.11100
C641        C  0.84420270  0.62757069  0.59351740    -0.09500
C642        C  0.83235182  0.63456739  0.63407735    -0.11100
C643        C  0.64891092  0.62049976  0.82878562    -0.09500
C644        C  0.64358327  0.58672503  0.85525184    -0.11100
C645        C  0.63287816  0.82254103  0.65048049    -0.09500
C646        C  0.59620018  0.84517310  0.64390071    -0.11100
C647        C  0.64901284  0.86221415  0.92187475    -0.09500
C648        C  0.67546866  0.85734627  0.88806324    -0.11100
C649        C  0.86994948  0.87569908  0.68168614    -0.09500
C650        C  0.87078661  0.91115486  0.65689308    -0.11100
C651        C  0.88612387  0.67898310  0.88046054    -0.09500
C652        C  0.92246953  0.66923238  0.90150693    -0.11100
loop_ 
_geom_bond_atom_site_label_1 
_geom_bond_atom_site_label_2 
_geom_bond_distance 
_geom_bond_site_symmetry_2 
_ccdc_geom_bond_type 
N1            C6   1.357       .  A
N1            C5   1.356       .  A
N1           H33   1.035       .  S
N2            C9   1.363       .  A
N2           C10   1.362   1_565  A
N3            C8   1.359       .  A
N3            C7   1.358       .  A
N3           H34   1.033       .  S
N4           C11   1.362       .  A
N4           C12   1.361   1_565  A
C5           C13   1.388       .  A
C5           C21   1.421       .  A
C6           C22   1.416       .  A
C6           C14   1.383       .  A
C7           C15   1.387       .  A
C7           C24   1.424       .  A
C8           C23   1.423       .  A
C8           C16   1.385       .  A
C9           C21   1.431       .  A
C9           C17   1.381       .  A
C10          C24   1.445       .  A
C10          C18   1.390       .  A
C11          C19   1.383       .  A
C11          C22   1.434       .  A
C12          C20   1.387       .  A
C12          C23   1.439       .  A
C13          C14   1.375       .  A
C13          H25   1.082       .  S
C14          H26   1.083       .  S
C15          C16   1.380       .  A
C15          H27   1.082       .  S
C16          H28   1.082       .  S
C17          C18   1.379   1_565  A
C17          H29   1.082       .  S
C18          H30   1.078       .  S
C19          C20   1.371   1_565  A
C19          H31   1.079       .  S
C20          H32   1.077       .  S
C21         N466   1.458       .  S
C22         N536   1.458       .  S
C23         N508   1.462       .  S
C24         N410   1.461       .  S
N35          C40   1.354       .  A
N35          C39   1.356       .  A
N35          H67   1.032       .  S
N36          C43   1.363       .  A
N36          C44   1.362   1_655  A
N37          C42   1.357       .  A
N37          C41   1.356       .  A
N37          H68   1.031       .  S
N38          C45   1.362       .  A
N38          C46   1.363   1_655  A
C39          C47   1.385       .  A
C39          C55   1.418       .  A
C40          C56   1.419       .  A
C40          C48   1.387       .  A
C41          C49   1.386       .  A
C41          C58   1.421       .  A
C42          C57   1.421       .  A
C42          C50   1.386       .  A
C43          C55   1.436       .  A
C43          C51   1.383       .  A
C44          C58   1.445       .  A
C44          C52   1.389       .  A
C45          C53   1.382       .  A
C45          C56   1.433       .  A
C46          C54   1.389       .  A
C46          C57   1.445       .  A
C47          C48   1.378       .  A
C47          H59   1.082       .  S
C48          H60   1.082       .  S
C49          C50   1.377       .  A
C49          H61   1.082       .  S
C50          H62   1.082       .  S
C51          C52   1.376   1_655  A
C51          H63   1.082       .  S
C52          H64   1.077       .  S
C53          C54   1.379   1_655  A
C53          H65   1.082       .  S
C54          H66   1.078       .  S
C55         N438   1.459       .  S
C56         N550   1.454       .  S
C57         N473   1.462       .  S
C58         N487   1.460       .  S
N69          C74   1.354       .  A
N69          C73   1.355       .  A
N69         H101   1.032       .  S
N70          C77   1.363   1_554  A
N70          C78   1.362       .  A
N71          C76   1.357       .  A
N71          C75   1.355       .  A
N71         H102   1.034       .  S
N72          C79   1.364   1_554  A
N72          C80   1.364       .  A
C73          C81   1.386       .  A
C73          C89   1.416       .  A
C74          C90   1.416       .  A
C74          C82   1.386       .  A
C75          C83   1.386       .  A
C75          C92   1.420       .  A
C76          C91   1.419       .  A
C76          C84   1.385       .  A
C77          C89   1.441       .  A
C77          C85   1.388       .  A
C78          C92   1.432       .  A
C78          C86   1.383       .  A
C79          C87   1.386       .  A
C79          C90   1.443       .  A
C80          C88   1.385       .  A
C80          C91   1.441       .  A
C81          C82   1.376       .  A
C81          H93   1.082       .  S
C82          H94   1.082       .  S
C83          C84   1.378       .  A
C83          H95   1.082       .  S
C84          H96   1.082       .  S
C85          C86   1.379   1_556  A
C85          H97   1.079       .  S
C86          H98   1.082       .  S
C87          C88   1.374   1_556  A
C87          H99   1.077       .  S
C88         H100   1.079       .  S
C89         N543   1.457       .  S
C90         N515   1.459       .  S
C91         N445   1.462       .  S
C92         N431   1.455       .  S
N103        C108   1.355       .  A
N103        C107   1.356   1_554  A
N103        H135   1.034   1_455  S
N104        C111   1.361       .  A
N104        C112   1.358       .  A
N105        C110   1.356   1_556  A
N105        C109   1.356       .  A
N105        H136   1.031       .  S
N106        C113   1.357       .  A
N106        C114   1.360       .  A
C107        C115   1.390   1_556  A
C107        C123   1.425       .  A
C108        C124   1.410       .  A
C108        C116   1.381       .  A
C109        C117   1.383       .  A
C109        C126   1.416       .  A
C110        C125   1.428       .  A
C110        C118   1.389   1_554  A
C111        C123   1.426       .  A
C111        C119   1.382       .  A
C112        C126   1.435       .  A
C112        C120   1.389       .  A
C113        C121   1.388       .  A
C113        C124   1.433       .  A
C114        C122   1.383       .  A
C114        C125   1.427       .  A
C115        C116   1.368       .  A
C115        H127   1.078   1_554  S
C116        H128   1.082       .  S
C117        C118   1.373       .  A
C117        H129   1.082       .  S
C118        H130   1.080   1_556  S
C119        C120   1.382       .  A
C119        H131   1.082   1_455  S
C120        H132   1.081   1_455  S
C121        C122   1.382       .  A
C121        H133   1.081       .  S
C122        H134   1.082       .  S
C123        N529   1.457       .  S
C124        N452   1.449       .  S
C125        N396   1.457       .  S
C126        N494   1.452       .  S
N137        C142   1.359   1_546  A
N137        C141   1.357       .  A
N137        H169   1.034       .  S
N138        C145   1.361       .  A
N138        C146   1.363       .  A
N139        C144   1.355   1_545  A
N139        C143   1.356   1_554  A
N139        H170   1.031       .  S
N140        C147   1.362       .  A
N140        C148   1.362       .  A
C141        C149   1.387   1_556  A
C141        C157   1.423       .  A
C142        C158   1.420       .  A
C142        C150   1.385       .  A
C143        C151   1.386       .  A
C143        C160   1.420       .  A
C144        C159   1.419       .  A
C144        C152   1.386   1_554  A
C145        C157   1.442       .  A
C145        C153   1.390       .  A
C146        C160   1.432       .  A
C146        C154   1.382       .  A
C147        C155   1.387       .  A
C147        C158   1.440       .  A
C148        C156   1.385       .  A
C148        C159   1.437       .  A
C149        C150   1.378   1_545  A
C149        H161   1.082       .  S
C150        H162   1.082       .  S
C151        C152   1.380   1_545  A
C151        H163   1.082       .  S
C152        H164   1.082       .  S
C153        C154   1.376       .  A
C153        H165   1.078       .  S
C154        H166   1.082       .  S
C155        C156   1.375       .  A
C155        H167   1.078       .  S
C156        H168   1.081       .  S
C157        N424   1.458       .  S
C158        N480   1.462       .  S
C159        N459   1.455   1_554  S
C160        N403   1.457       .  S
O171        C187   1.273       .  A
O171       Zn177   2.029       .  S
C172        O188   1.272       .  A
C172        O185   1.274       .  A
C172        C648   1.444       .  S
O173        C186   1.280       .  A
O173       Cd180   2.117       .  S
O174        C192   1.268       .  A
O174       Cd183   2.043       .  S
O175        C189   1.275       .  A
O175       Cd179   2.091       .  S
O176        C187   1.274       .  A
O176       Cd179   2.065       .  S
Zn177       O188   2.011       .  S
Zn177       O190   1.965       .  S
Zn177       O182   1.935       .  S
O178        C189   1.273       .  A
O178       Cd183   2.054       .  S
Cd179       O181   2.046       .  S
Cd179       O182   2.007       .  S
Cd180       O184   2.110       .  S
Cd180       O193   2.119       .  S
Cd180       O182   2.023       .  S
O181        C191   1.268       .  A
O182       Cd183   1.998       .  S
Cd183       O185   2.092       .  S
O184        C191   1.281       .  A
C186        O190   1.265       .  A
C186        C643   1.436       .  S
C187        C651   1.437       .  S
C189        C649   1.436       .  S
C191        C642   1.437       .  S
C192        O193   1.281       .  A
C192        C645   1.441       .  S
O194        C210   1.274       .  A
O194       Zn200   2.025       .  S
C195        O211   1.275       .  A
C195        O208   1.274       .  A
C195        C639   1.443       .  S
O196        C209   1.284       .  A
O196       Cd203   2.140       .  S
O197        C215   1.268       .  A
O197       Cd206   2.037       .  S
O198        C212   1.272       .  A
O198       Cd202   2.056       .  S
O199        C210   1.271       .  A
O199       Cd202   2.067       .  S
Zn200       O211   2.050       .  S
Zn200       O213   1.966       .  S
Zn200       O205   1.952       .  S
O201        C212   1.275       .  A
O201       Cd206   2.104       .  S
Cd202       O204   2.021       .  S
Cd202       O205   1.989       .  S
Cd203       O207   2.142       .  S
Cd203       O216   2.137       .  S
Cd203       O205   2.037       .  S
O204        C214   1.265       .  A
O205       Cd206   2.002       .  S
Cd206       O208   2.066       .  S
O207        C214   1.284       .  A
C209        O213   1.266       .  A
C209        C629   1.443       .  S
C210        C634   1.436       .  S
C212        C637   1.444       .  S
C214        C636   1.442       .  S
C215        O216   1.284       .  A
C215        C632   1.444       .  S
O217        C233   1.274       .  A
O217       Zn223   2.009       .  S
C218        O234   1.275       .  A
C218        O231   1.276       .  A
C218        C626   1.448       .  S
O219        C232   1.281       .  A
O219       Cd226   2.128       .  S
O220        C238   1.267       .  A
O220       Cd229   2.029       .  S
O221        C235   1.273       .  A
O221       Cd225   2.064       .  S
O222        C233   1.273       .  A
O222       Cd225   2.075       .  S
Zn223       O234   2.046       .  S
Zn223       O236   1.987       .  S
Zn223       O228   1.939       .  S
O224        C235   1.276       .  A
O224       Cd229   2.102       .  S
Cd225       O227   2.040       .  S
Cd225       O228   1.994       .  S
Cd226       O230   2.128       .  S
Cd226       O239   2.135       .  S
Cd226       O228   2.034       .  S
O227        C237   1.268       .  A
O228       Cd229   2.000       .  S
Cd229       O231   2.083       .  S
O230        C237   1.282       .  A
C232        O236   1.268       .  A
C232        C623   1.445       .  S
C233        C622   1.435       .  S
C235        C627   1.445       .  S
C237        C617   1.444       .  S
C238        O239   1.284       .  A
C238        C619   1.441       .  S
O240        C256   1.274       .  A
O240       Zn246   2.017       .  S
C241        O257   1.275       .  A
C241        O254   1.275       .  A
C241        C607   1.440       .  S
O242        C255   1.279       .  A
O242       Cd249   2.107       .  S
O243        C261   1.268       .  A
O243       Cd252   2.049       .  S
O244        C258   1.276       .  A
O244       Cd248   2.075       .  S
O245        C256   1.275       .  A
O245       Cd248   2.088       .  S
Zn246       O257   2.043       .  S
Zn246       O259   2.004       .  S
Zn246       O251   1.956       .  S
O247        C258   1.274       .  A
O247       Cd252   2.086       .  S
Cd248       O250   2.045       .  S
Cd248       O251   2.004       .  S
Cd249       O253   2.126       .  S
Cd249       O262   2.125       .  S
Cd249       O251   2.020       .  S
O250        C260   1.268       .  A
O251       Cd252   2.001       .  S
Cd252       O254   2.062       .  S
O253        C260   1.281       .  A
C255        O259   1.269       .  A
C255        C609   1.443       .  S
C256        C614   1.443       .  S
C258        C606   1.442       .  S
C260        C611   1.446       .  S
C261        O262   1.283       .  A
C261        C616   1.445       .  S
O263        C279   1.279       .  A
O263       Zn269   2.046       .  S
C264        O280   1.280       .  A
C264        O277   1.273       .  A
C264        C604   1.447       .  S
O265        C278   1.279       .  A
O265       Cd272   2.106       .  S
O266        C284   1.268       .  A
O266       Cd275   2.045       .  S
O267        C281   1.277       .  A
O267       Cd271   2.077       .  S
O268        C279   1.276       .  A
O268       Cd271   2.091       .  S
Zn269       O280   2.073       .  S
Zn269       O282   1.995       .  S
Zn269       O274   1.956       .  S
O270        C281   1.274       .  A
O270       Cd275   2.080       .  S
Cd271       O273   2.057       .  S
Cd271       O274   2.001       .  S
Cd272       O276   2.102       .  S
Cd272       O285   2.115       .  S
Cd272       O274   2.015       .  S
O273        C283   1.269       .  A
O274       Cd275   1.998       .  S
Cd275       O277   2.053       .  S
O276        C283   1.279       .  A
C278        O282   1.268       .  A
C278        C595   1.439       .  S
C279        C598   1.451       .  S
C281        C601   1.441       .  S
C283        C599   1.440       .  S
C284        O285   1.280       .  A
C284        C594   1.441       .  S
O286        C302   1.277       .  A
O286       Zn292   2.059       .  S
C287        O303   1.274       .  A
C287        O300   1.274       .  A
C287        C591   1.439       .  S
O288        C301   1.281       .  A
O288       Cd295   2.114       .  S
O289        C307   1.265       .  A
O289       Cd298   2.029       .  S
O290        C304   1.275       .  A
O290       Cd294   2.094       .  S
O291        C302   1.276       .  A
O291       Cd294   2.074       .  S
Zn292       O303   2.017       .  S
Zn292       O305   2.005       .  S
Zn292       O297   1.953       .  S
O293        C304   1.275       .  A
O293       Cd298   2.072       .  S
Cd294       O296   2.044       .  S
Cd294       O297   1.996       .  S
Cd295       O299   2.132       .  S
Cd295       O308   2.134       .  S
Cd295       O297   2.026       .  S
O296        C306   1.269       .  A
O297       Cd298   2.003       .  S
Cd298       O300   2.081       .  S
O299        C306   1.283       .  A
C301        O305   1.270       .  A
C301        C583   1.444       .  S
C302        C585   1.448       .  S
C304        C588   1.446       .  S
C306        C589   1.446       .  S
C307        O308   1.282       .  A
C307        C581   1.444       .  S
O309        C325   1.275       .  A
O309       Zn315   2.048       .  S
C310        O326   1.275       .  A
C310        O323   1.275       .  A
C310        C576   1.443       .  S
O311        C324   1.281       .  A
O311       Cd318   2.126       .  S
O312        C330   1.269       .  A
O312       Cd321   2.048       .  S
O313        C327   1.274       .  A
O313       Cd317   2.086       .  S
O314        C325   1.273       .  A
O314       Cd317   2.054       .  S
Zn315       O326   2.020       .  S
Zn315       O328   1.992       .  S
Zn315       O320   1.954       .  S
O316        C327   1.275       .  A
O316       Cd321   2.073       .  S
Cd317       O319   2.044       .  S
Cd317       O320   2.000       .  S
Cd318       O322   2.117       .  S
Cd318       O331   2.121       .  S
Cd318       O320   2.024       .  S
O319        C329   1.268       .  A
O320       Cd321   2.005       .  S
Cd321       O323   2.091       .  S
O322        C329   1.281       .  A
C324        O328   1.268       .  A
C324        C577   1.447       .  S
C325        C573   1.440       .  S
C327        C580   1.440       .  S
C329        C572   1.440       .  S
C330        O331   1.282       .  A
C330        C570   1.444       .  S
N332        C337   1.352   1_445  A
N332        C336   1.355       .  A
N332        H364   1.028       .  S
N333        C340   1.362       .  A
N333        C341   1.357       .  A
N334        C339   1.357   1_455  A
N334        C338   1.353       .  A
N334        H365   1.030       .  S
N335        C342   1.359       .  A
N335        C343   1.361       .  A
C336        C344   1.387   1_545  A
C336        C352   1.421       .  A
C337        C353   1.414   1_565  A
C337        C345   1.385       .  A
C338        C346   1.387       .  A
C338        C355   1.419       .  A
C339        C354   1.418       .  A
C339        C347   1.384   1_545  A
C340        C352   1.427       .  A
C340        C348   1.381       .  A
C341        C355   1.438       .  A
C341        C349   1.390       .  A
C342        C350   1.385       .  A
C342        C353   1.432       .  A
C343        C351   1.386       .  A
C343        C354   1.437       .  A
C344        C345   1.377   1_455  A
C344        H356   1.082       .  S
C345        H357   1.082       .  S
C346        C347   1.378   1_445  A
C346        H358   1.082   1_545  S
C347        H359   1.082       .  S
C348        C349   1.378       .  A
C348        H360   1.082       .  S
C349        H361   1.079       .  S
C350        C351   1.372       .  A
C350        H362   1.081       .  S
C351        H363   1.077       .  S
C352        N501   1.456       .  S
C353        N522   1.447   1_545  S
C354        N417   1.459       .  S
C355        N366   1.449       .  S
N366        C370   1.355   1_545  A
N366        C367   1.354       .  A
C367        C368   1.380       .  A
C367        C567   1.440       .  S
C368        C369   1.369   1_545  A
C368        H371   1.083       .  S
C369        C370   1.380       .  A
C369        H372   1.083       .  S
C370        C592   1.442       .  S
O373        C389   1.274       .  A
O373       Zn379   2.013       .  S
C374        O390   1.274       .  A
C374        O387   1.274       .  A
C374        C565   1.442       .  S
O375        C388   1.282       .  A
O375       Cd382   2.130       .  S
O376        C394   1.266       .  A
O376       Cd385   2.025       .  S
O377        C391   1.272       .  A
O377       Cd381   2.055       .  S
O378        C389   1.272       .  A
O378       Cd381   2.082       .  S
Zn379       O390   2.044       .  S
Zn379       O392   1.979       .  S
Zn379       O384   1.936       .  S
O380        C391   1.274       .  A
O380       Cd385   2.089       .  S
Cd381       O383   2.036       .  S
Cd381       O384   2.000       .  S
Cd382       O386   2.138       .  S
Cd382       O395   2.140       .  S
Cd382       O384   2.033       .  S
O383        C393   1.268       .  A
O384       Cd385   2.003       .  S
Cd385       O387   2.069       .  S
O386        C393   1.283       .  A
C388        O392   1.267       .  A
C388        C559   1.443       .  S
C389        C564   1.439       .  S
C391        C568   1.437       .  S
C393        C561   1.446       .  S
C394        O395   1.285       .  A
C394        C558   1.442       .  S
N396        C400   1.365   1_455  A
N396        C397   1.365       .  A
C397        C398   1.377       .  A
C397        C566   1.438       .  S
C398        C399   1.360   1_455  A
C398        H401   1.083       .  S
C399        C400   1.378       .  A
C399        H402   1.083       .  S
C400        C579   1.437       .  S
N403        C407   1.362   1_556  A
N403        C404   1.366       .  A
C404        C405   1.378       .  A
C404        C615   1.439       .  S
C405        C406   1.359   1_556  A
C405        H408   1.083       .  S
C406        C407   1.378       .  A
C406        H409   1.083       .  S
C407        C563   1.436       .  S
N410        C414   1.362       .  A
N410        C411   1.363       .  A
C411        C412   1.380       .  A
C411        C578   1.448       .  S
C412        C413   1.365       .  A
C412        H415   1.083       .  S
C413        C414   1.379       .  A
C413        H416   1.083       .  S
C414        C562   1.448       .  S
N417        C421   1.360   1_545  A
N417        C418   1.360       .  A
C418        C419   1.380       .  A
C418        C575   1.445       .  S
C419        C420   1.364   1_545  A
C419        H422   1.083       .  S
C420        C421   1.380       .  A
C420        H423   1.083       .  S
C421        C602   1.443       .  S
N424        C428   1.358   1_556  A
N424        C425   1.363       .  A
C425        C426   1.379       .  A
C425        C625   1.448       .  S
C426        C427   1.366   1_556  A
C426        H429   1.083       .  S
C427        C428   1.380       .  A
C427        H430   1.083       .  S
C428        C574   1.444       .  S
N431        C435   1.362       .  A
N431        C432   1.363       .  A
C432        C433   1.378       .  A
C432        C571   1.436       .  S
C433        C434   1.359       .  A
C433        H436   1.083       .  S
C434        C435   1.378       .  A
C434        H437   1.083       .  S
C435        C596   1.434       .  S
N438        C442   1.363       .  A
N438        C439   1.363       .  A
C439        C440   1.379       .  A
C439        C569   1.441       .  S
C440        C441   1.362       .  A
C440        H443   1.083       .  S
C441        C442   1.377       .  A
C441        H444   1.083       .  S
C442        C618   1.443       .  S
N445        C449   1.364       .  A
N445        C446   1.362       .  A
C446        C447   1.379       .  A
C446        C560   1.445       .  S
C447        C448   1.362       .  A
C447        H450   1.083       .  S
C448        C449   1.378       .  A
C448        H451   1.083       .  S
C449        C590   1.446       .  S
N452        C456   1.356       .  A
N452        C453   1.355   1_455  A
C453        C454   1.380       .  A
C453        C603   1.451       .  S
C454        C455   1.373   1_655  A
C454        H457   1.083       .  S
C455        C456   1.381       .  A
C455        H458   1.083       .  S
C456        C587   1.449       .  S
N459        C463   1.364   1_556  A
N459        C460   1.362       .  A
C460        C461   1.378       .  A
C460        C638   1.444       .  S
C461        C462   1.363   1_556  A
C461        H464   1.083       .  S
C462        C463   1.379       .  A
C462        H465   1.083       .  S
C463        C586   1.446       .  S
N466        C470   1.365       .  A
N466        C467   1.367       .  A
C467        C468   1.377       .  A
C467        C584   1.436       .  S
C468        C469   1.357       .  A
C468        H471   1.083       .  S
C469        C470   1.377       .  A
C469        H472   1.083       .  S
C470        C600   1.434       .  S
N473        C477   1.360       .  A
N473        C474   1.360       .  A
C474        C475   1.381       .  A
C474        C630   1.448       .  S
C475        C476   1.366       .  A
C475        H478   1.083       .  S
C476        C477   1.379       .  A
C476        H479   1.083       .  S
C477        C582   1.448       .  S
N480        C484   1.365       .  A
N480        C481   1.361   1_554  A
C481        C482   1.378       .  A
C481        C647   1.445       .  S
C482        C483   1.364   1_556  A
C482        H485   1.083       .  S
C483        C484   1.381       .  A
C483        H486   1.083       .  S
C484        C597   1.451       .  S
N487        C491   1.359       .  A
N487        C488   1.359       .  A
C488        C489   1.379       .  A
C488        C557   1.446       .  S
C489        C490   1.366       .  A
C489        H492   1.083       .  S
C490        C491   1.381       .  A
C490        H493   1.083       .  S
C491        C613   1.446       .  S
N494        C498   1.359       .  A
N494        C495   1.358   1_455  A
C495        C496   1.380       .  A
C495        C628   1.447       .  S
C496        C497   1.370   1_655  A
C496        H499   1.083       .  S
C497        C498   1.379       .  A
C497        H500   1.083       .  S
C498        C612   1.448       .  S
N501        C505   1.365   1_545  A
N501        C502   1.365       .  A
C502        C503   1.377       .  A
C502        C610   1.436       .  S
C503        C504   1.358   1_545  A
C503        H506   1.083       .  S
C504        C505   1.378       .  A
C504        H507   1.083       .  S
C505        C640   1.438       .  S
N508        C512   1.361       .  A
N508        C509   1.364       .  A
C509        C510   1.380       .  A
C509        C624   1.444       .  S
C510        C511   1.361       .  A
C510        H513   1.084       .  S
C511        C512   1.379       .  A
C511        H514   1.083       .  S
C512        C608   1.440       .  S
N515        C519   1.359       .  A
N515        C516   1.358       .  A
C516        C517   1.381       .  A
C516        C605   1.445       .  S
C517        C518   1.367       .  A
C517        H520   1.083       .  S
C518        C519   1.379       .  A
C518        H521   1.083       .  S
C519        C635   1.448       .  S
N522        C526   1.354       .  A
N522        C523   1.355   1_565  A
C523        C524   1.378       .  A
C523        C621   1.438       .  S
C524        C525   1.368   1_545  A
C524        H527   1.083       .  S
C525        C526   1.381       .  A
C525        H528   1.083       .  S
C526        C650   1.440       .  S
N529        C533   1.363       .  A
N529        C530   1.364   1_455  A
C530        C531   1.379       .  A
C530        C652   1.434       .  S
C531        C532   1.360   1_655  A
C531        H534   1.083       .  S
C532        C533   1.377       .  A
C532        H535   1.083       .  S
C533        C633   1.432       .  S
N536        C540   1.360       .  A
N536        C537   1.362       .  A
C537        C538   1.379       .  A
C537        C631   1.446       .  S
C538        C539   1.364       .  A
C538        H541   1.083       .  S
C539        C540   1.379       .  A
C539        H542   1.083       .  S
C540        C646   1.443       .  S
N543        C547   1.358       .  A
N543        C544   1.357       .  A
C544        C545   1.379       .  A
C544        C644   1.441       .  S
C545        C546   1.365       .  A
C545        H548   1.083       .  S
C546        C547   1.380       .  A
C546        H549   1.083       .  S
C547        C620   1.445       .  S
N550        C554   1.360       .  A
N550        C551   1.364       .  A
C551        C552   1.378       .  A
C551        C593   1.437       .  S
C552        C553   1.361       .  A
C552        H555   1.083       .  S
C553        C554   1.378       .  A
C553        H556   1.083       .  S
C554        C641   1.434       .  S
C557        C558   1.211       .  T
C559        C560   1.211       .  T
C561        C562   1.213       .  T
C563        C564   1.207       .  T
C565        C566   1.208       .  T
C567        C568   1.207       .  T
C569        C570   1.210       .  T
C571        C572   1.208       .  T
C573        C574   1.210       .  T
C575        C576   1.211       .  T
C577        C578   1.213       .  T
C579        C580   1.208       .  T
C581        C582   1.213       .  T
C583        C584   1.209       .  T
C585        C586   1.213       .  T
C587        C588   1.213       .  T
C589        C590   1.213       .  T
C591        C592   1.209       .  T
C593        C594   1.208       .  T
C595        C596   1.207       .  T
C597        C598   1.216       .  T
C599        C600   1.207       .  T
C601        C602   1.210       .  T
C603        C604   1.214       .  T
C605        C606   1.210       .  T
C607        C608   1.208       .  T
C609        C610   1.209       .  T
C611        C612   1.213       .  T
C613        C614   1.211       .  T
C615        C616   1.211       .  T
C617        C618   1.211       .  T
C619        C620   1.211       .  T
C621        C622   1.206       .  T
C623        C624   1.212       .  T
C625        C626   1.213       .  T
C627        C628   1.212       .  T
C629        C630   1.212       .  T
C631        C632   1.212       .  T
C633        C634   1.205       .  T
C635        C636   1.212       .  T
C637        C638   1.211       .  T
C639        C640   1.209       .  T
C641        C642   1.205       .  T
C643        C644   1.208       .  T
C645        C646   1.210       .  T
C647        C648   1.211       .  T
C649        C650   1.207       .  T
C651        C652   1.205       .  T
