geometry optimzed in LAMMPS
_audit_creation_date              2020-11-30 
_audit_creation_method            'lammps2cif' 
_symmetry_space_group_name_H-M    'P1' 
_symmetry_Int_Tables_number       1 
_symmetry_cell_setting            triclinic 
loop_ 
_symmetry_equiv_pos_as_xyz 
  x,y,z 
_cell_length_a                    38.2388007 
_cell_length_b                    38.90978132143656 
_cell_length_c                    38.674969226129804 
_cell_angle_alpha                 89.42971233617199 
_cell_angle_beta                  91.68776456572277 
_cell_angle_gamma                 87.84038302014622 
loop_ 
_atom_site_label 
_atom_site_type_symbol 
_atom_site_fract_x 
_atom_site_fract_y 
_atom_site_fract_z 
_atom_site_charge 
O1          O  0.50920267  0.55513118  0.62639539    -0.81100
O2          O  0.60974677  0.64869902  0.56844105    -0.65800
O3          O  0.55237084  0.57127587  0.57532479    -1.12400
C4          C  0.65427470  0.52667092  0.63287696     1.05800
O5          O  0.64588987  0.61378872  0.54068848    -0.79000
O6          O  0.63617131  0.54217976  0.54053727    -0.66600
Ni7        Ni  0.50418569  0.57991580  0.58385139     1.34900
C8          C  0.62204489  0.51436435  0.54931140     0.84500
O9          O  0.54423009  0.63807439  0.54445171    -0.79600
O10         O  0.49826462  0.60468406  0.54018370    -0.89800
C11         C  0.63604378  0.64432738  0.54934953     0.84100
O12         O  0.50601709  0.62127820  0.61119374    -0.68000
O13         O  0.66664327  0.53843009  0.60490162    -0.87300
C14         C  0.53179855  0.63261556  0.62869602     0.84900
C15         C  0.51709097  0.62807154  0.52787931     1.06500
H16         H  0.61966296  0.59579564  0.61844984     0.38300
O17         O  0.61312584  0.58428146  0.59734235    -1.10000
O18         O  0.60101152  0.51387921  0.57438607    -0.66600
Ni19       Ni  0.58415697  0.54728265  0.60827146     1.26300
O20         O  0.56266577  0.62954298  0.61678295    -0.66900
O21         O  0.62112744  0.52761902  0.63946969    -0.79200
C22         C  0.51807394  0.52346097  0.62799146     0.84300
O23         O  0.54950575  0.51355783  0.62075886    -0.66300
Ni24       Ni  0.65429324  0.57509378  0.57282841     1.27400
Ni25       Ni  0.57889866  0.61146829  0.57224723     1.26100
H26         H  0.55367735  0.55957757  0.55344057     0.38800
O27         O  0.95021187  0.59158858  0.34799761    -0.81100
O28         O  0.88602866  0.49612753  0.44059050    -0.65800
O29         O  0.89680149  0.57716994  0.38706033    -1.12400
C30         C  0.95867241  0.61214416  0.48755165     1.05800
O31         O  0.86307168  0.52933224  0.48062836    -0.79000
O32         O  0.86808243  0.60178346  0.47791073    -0.66600
Ni33       Ni  0.90634574  0.57216601  0.33955386     1.34900
C34         C  0.87306754  0.62866575  0.45977070     0.84500
O35         O  0.86132437  0.51578669  0.37686500    -0.79600
O36         O  0.86148042  0.55276335  0.33209327    -0.89800
C37         C  0.86681149  0.49961044  0.46676151     0.84100
O38         O  0.93037775  0.52806397  0.33983596    -0.68000
O39         O  0.93529840  0.59410085  0.50130090    -0.87300
C40         C  0.94839465  0.51533600  0.36512648     0.84900
C41         C  0.84657097  0.52994572  0.34973497     1.06500
H42         H  0.94132119  0.54448888  0.45005945     0.38300
O43         O  0.92013644  0.55758413  0.44592655    -1.10000
O44         O  0.89536925  0.62887441  0.43591860    -0.66600
Ni45       Ni  0.93052357  0.59697422  0.41845971     1.26300
O46         O  0.93621804  0.51544879  0.39547212    -0.66900
O47         O  0.96212219  0.61451073  0.45439009    -0.79200
C48         C  0.94907746  0.62328577  0.35401875     0.84300
O49         O  0.94127984  0.63303846  0.38461605    -0.66300
Ni50       Ni  0.89945360  0.56288464  0.48915572     1.27400
Ni51       Ni  0.89196910  0.53574363  0.41197035     1.26100
H52         H  0.87492588  0.59041667  0.38829577     0.38800
O53         O  0.84563288  0.46291049  0.08179327    -0.81100
O54         O  0.91139281  0.35833859  0.16940422    -0.65800
O55         O  0.90102452  0.41987292  0.09387353    -1.12400
C56         C  0.84265572  0.32510552  0.04927142     1.05800
O57         O  0.93886509  0.32124785  0.13544479    -0.79000
O58         O  0.93693118  0.33731240  0.06316614    -0.66600
Ni59       Ni  0.88955316  0.46638501  0.10547779     1.34900
C60         C  0.92719194  0.35400935  0.03568847     0.84500
O61         O  0.93353425  0.42149347  0.16045311    -0.79600
O62         O  0.93419905  0.47033424  0.13023022    -0.89800
C63         C  0.93074145  0.33171844  0.16569997     0.84100
O64         O  0.86371528  0.46098854  0.14735150    -0.68000
O65         O  0.87201764  0.31048457  0.05874993    -0.87300
C66         C  0.84793093  0.43440398  0.15670738     0.84900
C67         C  0.94747695  0.44991403  0.15360965     1.06500
H68         H  0.86053851  0.35344368  0.11766951     0.38300
O69         O  0.88119735  0.35961024  0.10578311    -1.10000
O70         O  0.90122780  0.37572536  0.03575714    -0.66600
Ni71       Ni  0.86758576  0.39137899  0.07006488     1.26300
O72         O  0.86169138  0.40478542  0.15160754    -0.66900
O73         O  0.83575491  0.35793155  0.05110251    -0.79200
C74         C  0.84304839  0.45822982  0.04954062     0.84300
O75         O  0.85196961  0.42851550  0.03755018    -0.66300
Ni76       Ni  0.90559404  0.31812322  0.09581649     1.27400
Ni77       Ni  0.90647438  0.39039995  0.13294069     1.26100
H78         H  0.92266119  0.41934748  0.08156990     0.38800
C79         C  0.72578053  0.62658193  0.99872405     0.80000
N80         N  0.75630609  0.60670301  0.00113634    -0.78300
C81         C  0.75561647  0.57154038  0.00004228     0.82400
N82         N  0.72449509  0.55670118  0.99661210    -0.78300
C83         C  0.69388772  0.57498092  0.99471070     0.82500
N84         N  0.69429172  0.61034061  0.99558927    -0.80000
C85         C  0.07352303  0.48986196  0.29475104     0.80000
N86         N  0.10952079  0.48936165  0.29461474    -0.78300
C87         C  0.12677146  0.48627235  0.26371256     0.82400
N88         N  0.10727790  0.48198799  0.23353549    -0.78300
C89         C  0.07140427  0.48269079  0.23419156     0.82500
N90         N  0.05572936  0.48721573  0.26458033    -0.80000
O91         O  0.50085296  0.43797256  0.86307676    -0.81100
O92         O  0.58676299  0.33188691  0.93321480    -0.65800
O93         O  0.53908066  0.41754792  0.91897646    -1.12400
C94         C  0.64650794  0.44264670  0.87137128     1.05800
O95         O  0.62400903  0.36090234  0.96528099    -0.79000
O96         O  0.62521144  0.43478832  0.96058438    -0.66600
Ni97       Ni  0.49106805  0.41679586  0.90593054     1.34900
C98         C  0.61186481  0.46373479  0.94967580     0.84500
O99         O  0.52317591  0.35376465  0.94969400    -0.79600
O100        O  0.48107750  0.39509024  0.94971889    -0.89800
C101        C  0.61061114  0.33223168  0.95661453     0.84100
O102        O  0.49007114  0.37422847  0.88075928    -0.68000
O103        O  0.65747746  0.42731354  0.89933955    -0.87300
C104        C  0.51541162  0.35976965  0.86531051     0.84900
C105        C  0.49656383  0.36830604  0.96316314     1.06500
H106        H  0.60493597  0.38023434  0.88376574     0.38300
O107        O  0.59872660  0.39354064  0.90379321    -1.10000
O108        O  0.59148796  0.46539606  0.92316712    -0.66600
Ni109      Ni  0.57417839  0.43426554  0.88862812     1.26300
O110        O  0.54575126  0.35797748  0.88003895    -0.66900
O111        O  0.61388421  0.44689582  0.86164291    -0.79200
C112        C  0.51277892  0.46778281  0.86107468     0.84300
O113        O  0.54432427  0.47294768  0.87131979    -0.66300
Ni114      Ni  0.63920050  0.39586766  0.93230454     1.27400
Ni115      Ni  0.56107559  0.37364343  0.92568960     1.26100
H116        H  0.54072149  0.42967993  0.94060738     0.38800
O117        O  0.48218735  0.07095434  0.86717254    -0.81100
O118        O  0.38291972  0.17018651  0.91949539    -0.65800
O119        O  0.43925782  0.08896083  0.91731753    -1.12400
C120        C  0.33852160  0.04804136  0.86175139     1.05800
O121        O  0.34435877  0.14039092  0.94766516    -0.79000
O122        O  0.35556929  0.06601226  0.95167400    -0.66600
Ni123      Ni  0.48739910  0.09446547  0.90952558     1.34900
C124        C  0.37135701  0.03749246  0.94406107     0.84500
O125        O  0.44595980  0.15446217  0.94718050    -0.79600
O126        O  0.49229807  0.11795554  0.95308787    -0.89800
C127        C  0.35575036  0.16931352  0.93716355     0.84100
O128        O  0.48601110  0.13647541  0.88245596    -0.68000
O129        O  0.32532784  0.06348563  0.88763475    -0.87300
C130        C  0.46044131  0.14816042  0.86353322     0.84900
C131        C  0.47281850  0.14248490  0.96436198     1.06500
H132        H  0.37244700  0.11766002  0.87209270     0.38300
O133        O  0.37873543  0.10585025  0.89356916    -1.10000
O134        O  0.39266333  0.03602742  0.91953402    -0.66600
Ni135      Ni  0.40840981  0.06690359  0.88438989     1.26300
O136        O  0.42942934  0.14663550  0.87444486    -0.66900
O137        O  0.37158337  0.04800062  0.85454724    -0.79200
C138        C  0.47549380  0.03945576  0.86768966     0.84300
O139        O  0.44402603  0.03085394  0.87376722    -0.66300
Ni140      Ni  0.33721793  0.10019350  0.91796671     1.27400
Ni141      Ni  0.41248853  0.13052993  0.91875015     1.26100
H142        H  0.43772738  0.07757172  0.93951337     0.38800
C143        C  0.48645002  0.22329110  0.08481794     0.80000
N144        N  0.49099174  0.22437760  0.12010733    -0.78300
C145        C  0.48912302  0.25564032  0.13652003     0.82400
N146        N  0.48318624  0.28525349  0.11696527    -0.78300
C147        C  0.47887943  0.28367359  0.08178175     0.82500
N148        N  0.48055639  0.25270554  0.06679009    -0.80000
C149        C  0.49222574  0.22348644  0.73965636     0.80000
N150        N  0.49057649  0.22352922  0.70405366    -0.78300
C151        C  0.49478047  0.25363439  0.68559617     0.82400
N152        N  0.49981393  0.28358190  0.70375836    -0.78300
C153        C  0.50154912  0.28298588  0.73934607     0.82500
N154        N  0.49779173  0.25306210  0.75625906    -0.80000
C155        C  0.63105681  0.98043241  0.75865311     0.80000
N156        N  0.61035808  0.98131879  0.72882523    -0.78300
C157        C  0.57459560  0.98051914  0.73053133     0.82400
N158        N  0.56053321  0.97852906  0.76194236    -0.78300
C159        C  0.57972169  0.97775315  0.79157601     0.82500
N160        N  0.61532959  0.97922703  0.79013844    -0.80000
C161        C  0.92030462  0.99073323  0.22175878     0.80000
N162        N  0.93588716  0.98641221  0.25325028    -0.78300
C163        C  0.91782715  0.97969007  0.28178143     0.82400
N164        N  0.88207818  0.97808944  0.27894501    -0.78300
C165        C  0.86489823  0.98299031  0.24734992     0.82500
N166        N  0.88443919  0.98918089  0.21858416    -0.80000
C167        C  0.24391585  0.33737430  0.99250448     0.80000
N168        N  0.21913573  0.31682300  0.00664573    -0.78300
C169        C  0.22428854  0.28158327  0.00719178     0.82400
N170        N  0.25329589  0.26770061  0.99348922    -0.78300
C171        C  0.27760723  0.28686569  0.97930853     0.82500
N172        N  0.27320065  0.32190304  0.97865193    -0.80000
C173        C  0.25629423  0.87640046  0.98360880     0.80000
N174        N  0.28847264  0.89146889  0.98381918    -0.78300
C175        C  0.29024166  0.92668106  0.98351533     0.82400
N176        N  0.26035612  0.94595655  0.98242040    -0.78300
C177        C  0.22841640  0.93254625  0.98215702     0.82500
N178        N  0.22638061  0.89737824  0.98293380    -0.80000
C179        C  0.32783732  0.99019208  0.24887087     0.80000
N180        N  0.30623889  0.00309192  0.22203360    -0.78300
C181        C  0.27041369  0.00496271  0.22543694     0.82400
N182        N  0.25677616  0.99297130  0.25467839    -0.78300
C183        C  0.27692556  0.97972872  0.28104271     0.82500
N184        N  0.31264089  0.97827331  0.27832041    -0.80000
C185        C  0.98963711  0.24733339  0.87123958     0.80000
N186        N  0.98297519  0.27789076  0.88810091    -0.78300
C187        C  0.98378949  0.27885171  0.92356963     0.82400
N188        N  0.99088001  0.24953508  0.94155638    -0.78300
C189        C  0.99689444  0.21902553  0.92627802     0.82500
N190        N  0.99665983  0.21777052  0.89072490    -0.80000
C191        C  0.99992062  0.24258642  0.34347924     0.80000
N192        N  0.01153918  0.21328750  0.32688018    -0.78300
C193        C  0.01021784  0.21231727  0.29144477     0.82400
N194        N  0.99807904  0.23999516  0.27341932    -0.78300
C195        C  0.98629137  0.26857610  0.28878004     0.82500
N196        N  0.98681110  0.27020850  0.32405800    -0.80000
O197        O  0.13636217  0.02305541  0.06836654    -0.81100
O198        O  0.07985994  0.11651058  0.17370653    -0.65800
O199        O  0.08589325  0.06866020  0.08940749    -1.12400
C200        C  0.14343418  0.16832277  0.05627158     1.05800
O201        O  0.05303423  0.15948781  0.14441977    -0.79000
O202        O  0.05172393  0.15640689  0.07001258    -0.66600
Ni203      Ni  0.09347386  0.02015250  0.09191113     1.34900
C204        C  0.05890870  0.14202967  0.04124500     0.84500
O205        O  0.05296817  0.05737641  0.15363118    -0.79600
O206        O  0.04970137  0.01510695  0.11526725    -0.89800
C207        C  0.06179813  0.14441475  0.17334412     0.84100
O208        O  0.12157220  0.01618188  0.13420790    -0.68000
O209        O  0.11725441  0.18167601  0.07189536    -0.87300
C210        C  0.13921858  0.03903260  0.14919413     0.84900
C211        C  0.03738346  0.03173244  0.14077772     1.06500
H212        H  0.13034786  0.12816470  0.12413864     0.38300
O213        O  0.10888084  0.12495558  0.11096089    -1.10000
O214        O  0.08426767  0.12014236  0.03930328    -0.66600
Ni215      Ni  0.11955640  0.09949448  0.07068782     1.26300
O216        O  0.12691524  0.06998535  0.15018536    -0.66900
O217        O  0.15035060  0.13541571  0.05495188    -0.79200
C218        C  0.13979263  0.03627928  0.03862892     0.84300
O219        O  0.13205695  0.06836952  0.03307804    -0.66300
Ni220      Ni  0.08503324  0.16832863  0.10650500     1.27400
Ni221      Ni  0.08251715  0.09094759  0.13254994     1.26100
H222        H  0.06377155  0.07275040  0.07703045     0.38800
O223        O  0.32519823  0.94502242  0.60395281    -0.81100
O224        O  0.42195251  0.88096604  0.50703040    -0.65800
O225        O  0.36745344  0.89155679  0.58671920    -1.12400
C226        C  0.46801074  0.94502985  0.63008297     1.05800
O227        O  0.46369996  0.85559789  0.53949335    -0.79000
O228        O  0.45822428  0.85667207  0.61208127    -0.66600
Ni229      Ni  0.31908854  0.90318873  0.58019496     1.34900
C230        C  0.44019341  0.86166927  0.63894809     0.84500
O231        O  0.35906834  0.85828254  0.52278489    -0.79600
O232        O  0.31313802  0.85995697  0.55747268    -0.89800
C233        C  0.44903435  0.86124564  0.50960997     0.84100
O234        O  0.31952162  0.92958482  0.53775344    -0.68000
O235        O  0.48247791  0.92155409  0.61175055    -0.87300
C236        C  0.34531606  0.94403748  0.52459589     0.84900
C237        C  0.33199224  0.84484076  0.53506030     1.06500
H238        H  0.43096602  0.93291915  0.55830099     0.38300
O239        O  0.42686926  0.91181868  0.57064685    -1.10000
O240        O  0.41665221  0.88565964  0.64039439    -0.66600
Ni241      Ni  0.39864447  0.92231166  0.60968814     1.26300
O242        O  0.37578732  0.92976618  0.52570831    -0.66900
O243        O  0.43445310  0.95077959  0.63047250    -0.79200
C244        C  0.33267884  0.94266636  0.63592740     0.84300
O245        O  0.36431109  0.93363248  0.64534816    -0.66300
Ni246      Ni  0.47092232  0.88888889  0.57674783     1.27400
Ni247      Ni  0.39325978  0.88628875  0.54597548     1.26100
H248        H  0.36897374  0.86976490  0.59898102     0.38800
O249        O  0.07171148  0.85333063  0.48006244    -0.81100
O250        O  0.16815875  0.90984397  0.38776991    -0.65800
O251        O  0.08605153  0.90578441  0.43963815    -1.12400
C252        C  0.04385851  0.84978272  0.34092524     1.05800
O253        O  0.13605199  0.93568525  0.34571916    -0.79000
O254        O  0.06228600  0.93954865  0.35377201    -0.66600
Ni255      Ni  0.09271042  0.89595871  0.48747730     1.34900
C256        C  0.03357738  0.93301105  0.36806863     0.84500
O257        O  0.15148628  0.93566815  0.44982551    -0.79600
O258        O  0.11469553  0.93940573  0.49383003    -0.89800
C259        C  0.16607142  0.92726466  0.35986789     0.84100
O260        O  0.13670210  0.87046298  0.48822180    -0.68000
O261        O  0.05899175  0.87495967  0.32672028    -0.87300
C262        C  0.14622000  0.85098595  0.46397411     0.84900
C263        C  0.13916474  0.95150956  0.47604005     1.06500
H264        H  0.11567602  0.86106683  0.37700783     0.38300
O265        O  0.10320749  0.88259339  0.38142087    -1.10000
O266        O  0.03168666  0.90855526  0.39005556    -0.66600
Ni267      Ni  0.06406604  0.87333536  0.40912314     1.26300
O268        O  0.14528948  0.86300762  0.43320554    -0.66900
O269        O  0.04498502  0.84348862  0.37388330    -0.79200
C270        C  0.03933015  0.85288505  0.47331890     0.84300
O271        O  0.02830119  0.86182572  0.44270497    -0.66300
Ni272      Ni  0.09626048  0.90546982  0.33847755     1.27400
Ni273      Ni  0.12796687  0.90782750  0.41528860     1.26100
H274        H  0.07365318  0.92783457  0.43729278     0.38800
C275        C  0.00113792  0.74219109  0.63889764     0.80000
N276        N  0.00357199  0.71143820  0.62192847    -0.78300
C277        C  0.00331648  0.71068302  0.58653600     0.82400
N278        N  0.00095576  0.74070365  0.56877217    -0.78300
C279        C  0.99882212  0.77138889  0.58448810     0.82500
N280        N  0.99876495  0.77225036  0.61985126    -0.80000
C281        C  0.21590330  0.07247723  0.49191603     0.80000
N282        N  0.21720134  0.10722199  0.49787912    -0.78300
C283        C  0.24886840  0.12322459  0.49779591     0.82400
N284        N  0.27901345  0.10333597  0.49326847    -0.78300
C285        C  0.27727583  0.06868245  0.48731155     0.82500
N286        N  0.24583334  0.05428805  0.48665628    -0.80000
C287        C  0.21056351  0.71876407  0.48727679     0.80000
N288        N  0.24023360  0.73533051  0.49286981    -0.78300
C289        C  0.27037758  0.71903125  0.50277171     0.82400
N290        N  0.27134196  0.68406496  0.50718891    -0.78300
C291        C  0.24159035  0.66584464  0.50109374     0.82500
N292        N  0.21074441  0.68362007  0.49153264    -0.80000
C293        C  0.97054174  0.73728165  0.18199846     0.80000
N294        N  0.98419865  0.76381340  0.20065731    -0.78300
C295        C  0.98365057  0.76326148  0.23601585     0.82400
N296        N  0.96881027  0.73718587  0.25217213    -0.78300
C297        C  0.95528233  0.71083173  0.23500756     0.82500
N298        N  0.95707558  0.70995017  0.19958073    -0.80000
C299        C  0.16601787  0.98418380  0.75681617     0.80000
N300        N  0.18229318  0.97043973  0.72835209    -0.78300
C301        C  0.21825616  0.96847480  0.72743567     0.82400
N302        N  0.23714019  0.98092137  0.75383817    -0.78300
C303        C  0.22251272  0.99554996  0.78138984     0.82500
N304        N  0.18662540  0.99710292  0.78330685    -0.80000
C305        C  0.72265643  0.16296410  0.01001981     0.80000
N306        N  0.75176990  0.18185352  0.01687169    -0.78300
C307        C  0.74852414  0.21705084  0.01800757     0.82400
N308        N  0.71692274  0.23268890  0.01258193    -0.78300
C309        C  0.68806662  0.21509287  0.00572674     0.82500
N310        N  0.69075662  0.17998574  0.00426082    -0.80000
C311        C  0.48037957  0.73690239  0.80603110     0.80000
N312        N  0.49184328  0.70873604  0.78720098    -0.78300
C313        C  0.49125002  0.71010839  0.75152648     0.82400
N314        N  0.47896283  0.73910942  0.73540522    -0.78300
C315        C  0.46758030  0.76696597  0.75296446     0.82500
N316        N  0.46875043  0.76619946  0.78839640    -0.80000
C317        C  0.47293549  0.73270664  0.34842061     0.80000
N318        N  0.47157149  0.76412801  0.36451659    -0.78300
C319        C  0.47414555  0.76597544  0.39985538     0.82400
N320        N  0.47833091  0.73664217  0.41857740    -0.78300
C321        C  0.47969370  0.70548205  0.40376250     0.82500
N322        N  0.47720859  0.70325336  0.36840516    -0.80000
C323        C  0.75308400  0.80132095  0.49269049     0.80000
N324        N  0.78350500  0.78319491  0.48520520    -0.78300
C325        C  0.78345908  0.74804789  0.48249587     0.82400
N326        N  0.75374121  0.73154770  0.48804954    -0.78300
C327        C  0.72368589  0.74859450  0.49561837     0.82500
N328        N  0.72333864  0.78360864  0.49823387    -0.80000
C329        C  0.35484549  0.49514713  0.73760063     0.80000
N330        N  0.37356696  0.50416273  0.76676386    -0.78300
C331        C  0.40923255  0.50484101  0.76679381     0.82400
N332        N  0.42562794  0.49635006  0.73768134    -0.78300
C333        C  0.40856848  0.48734806  0.70844565     0.82500
N334        N  0.37263156  0.48674801  0.70812829    -0.80000
C335        C  0.76351790  0.47531256  0.79161178     0.80000
N336        N  0.79927915  0.47521696  0.79420199    -0.78300
C337        C  0.81801156  0.48215054  0.76529819     0.82400
N338        N  0.80033079  0.48824598  0.73411777    -0.78300
C339        C  0.76451720  0.48821032  0.73236523     0.82500
N340        N  0.74720855  0.48207336  0.76111589    -0.80000
C341        C  0.73824984  0.34231311  0.50682354     0.80000
N342        N  0.70750628  0.36152246  0.51055922    -0.78300
C343        C  0.70742363  0.39692589  0.50969368     0.82400
N344        N  0.73794776  0.41253798  0.50478594    -0.78300
C345        C  0.76850561  0.39455201  0.50086854     0.82500
N346        N  0.76871197  0.35929458  0.50212982    -0.80000
C347        C  0.72010385  0.46263515  0.22887039     0.80000
N348        N  0.73748843  0.47193683  0.25770787    -0.78300
C349        C  0.72107378  0.48451256  0.28527247     0.82400
N350        N  0.68528481  0.48777002  0.28450354    -0.78300
C351        C  0.66614689  0.47794812  0.25578063     0.82500
N352        N  0.68399330  0.46577020  0.22741086    -0.80000
O353        O  0.04314755  0.46168282  0.63890506    -0.81100
O354        O  0.14759144  0.36518176  0.55744732    -0.65800
O355        O  0.07223943  0.42815024  0.58165328    -1.12400
C356        C  0.04204175  0.33465569  0.65274568     1.05800
O357        O  0.10611004  0.32798015  0.55098639    -0.79000
O358        O  0.04148842  0.32315596  0.57247807    -0.66600
Ni359      Ni  0.07784671  0.47028253  0.60401026     1.34900
C360        C  0.02884248  0.34806863  0.55417406     0.84500
O361        O  0.12838668  0.43521033  0.53941934    -0.79600
O362        O  0.11043912  0.48221331  0.56943336    -0.89800
C363        C  0.13806026  0.33474510  0.54970083     0.84100
O364        O  0.11594222  0.45600707  0.63531702    -0.68000
O365        O  0.06736720  0.31684307  0.64025476    -0.87300
C366        C  0.14330848  0.43749838  0.62949787     0.84900
C367        C  0.12667393  0.46815402  0.54435773     1.06500
H368        H  0.10522460  0.37081376  0.62531304     0.38300
O369        O  0.09208118  0.36921516  0.60371403    -1.10000
O370        O  0.03043143  0.37876004  0.56459822    -0.66600
Ni371      Ni  0.04980026  0.39489211  0.60808027     1.26300
O372        O  0.14474201  0.41586100  0.60500634    -0.66900
O373        O  0.02796949  0.36073492  0.63656497    -0.79200
C374        C  0.01387553  0.44690841  0.63504516     0.84300
O375        O  0.00981585  0.42391876  0.61265728    -0.66300
Ni376      Ni  0.08688145  0.32193405  0.59520056     1.27400
Ni377      Ni  0.11165746  0.39973348  0.57030148     1.26100
H378        H  0.05872418  0.43321152  0.56058158     0.38800
O379        O  0.63457191  0.03684341  0.46925144    -0.81100
O380        O  0.55066207  0.15248872  0.38054350    -0.65800
O381        O  0.57618702  0.07232819  0.43726840    -1.12400
C382        C  0.64574527  0.04408752  0.33962674     1.05800
O383        O  0.54198707  0.11456630  0.33964109    -0.79000
O384        O  0.56174158  0.05008262  0.32737625    -0.66600
Ni385      Ni  0.60133713  0.07438552  0.48003575     1.34900
C386        C  0.54646713  0.03367813  0.35066023     0.84500
O387        O  0.53653740  0.13340705  0.45081603    -0.79600
O388        O  0.56911572  0.10964056  0.49511073    -0.89800
C389        C  0.54204491  0.14553762  0.34898584     0.84100
O390        O  0.63358948  0.10951888  0.46783367    -0.68000
O391        O  0.63063414  0.06993918  0.32390593    -0.87300
C392        C  0.62700854  0.13790397  0.45157817     0.84900
C393        C  0.54478980  0.13056329  0.48367125     1.06500
H394        H  0.61812491  0.10437910  0.38193994     0.38300
O395        O  0.59601992  0.09326249  0.37953103    -1.10000
O396        O  0.55824290  0.03291190  0.38197623    -0.66600
Ni397      Ni  0.60223558  0.05013892  0.40169535     1.26300
O398        O  0.60134754  0.14220874  0.43010285    -0.66900
O399        O  0.63203711  0.03013532  0.36602834    -0.79200
C400        C  0.62740961  0.00821890  0.45510817     0.84300
O401        O  0.60838616  0.00834096  0.42764366    -0.66300
Ni402      Ni  0.58578819  0.09235819  0.33151368     1.27400
Ni403      Ni  0.56428030  0.11420161  0.41242779     1.26100
H404        H  0.55498560  0.06023604  0.44105810     0.38800
C405        C  0.49365679  0.25395973  0.64596197     0.80000
N406        N  0.49745267  0.22381013  0.62756001    -0.78300
C407        C  0.49677596  0.22439707  0.59189429     0.82400
N408        N  0.49247604  0.25488692  0.57537563    -0.78300
C409        C  0.48914933  0.28493080  0.59221232     0.82500
N410        N  0.48974298  0.28462904  0.62776721    -0.80000
O411        O  0.44808717  0.34256697  0.37128853    -0.81100
O412        O  0.36653935  0.43245110  0.48215618    -0.65800
O413        O  0.39134460  0.37312901  0.40636390    -1.12400
C414        C  0.45511098  0.46880554  0.37113656     1.05800
O415        O  0.35662053  0.47062526  0.44073398    -0.79000
O416        O  0.37207088  0.47959492  0.37582426    -0.66600
Ni417      Ni  0.41945048  0.33248116  0.41154587     1.34900
C418        C  0.35393275  0.45506041  0.36507147     0.84500
O419        O  0.35283225  0.36171459  0.46354141    -0.79600
O420        O  0.39053260  0.31791300  0.44840647    -0.89800
C421        C  0.35759508  0.46344456  0.47263268     0.84100
O422        O  0.45256353  0.34975421  0.44557781    -0.68000
O423        O  0.44283296  0.48641802  0.39608734    -0.87300
C424        C  0.44451570  0.36345801  0.47438882     0.84900
C425        C  0.36279135  0.32931763  0.46285038     1.06500
H426        H  0.43367213  0.42987204  0.43589425     0.38300
O427        O  0.41094041  0.43178648  0.42434171    -1.10000
O428        O  0.36704509  0.42458179  0.36680809    -0.66600
Ni429      Ni  0.41359132  0.40826509  0.38226890     1.26300
O430        O  0.41720789  0.38285388  0.47679776    -0.66900
O431        O  0.43862415  0.44361548  0.35843251    -0.79200
C432        C  0.43636662  0.35606843  0.34247521     0.84300
O433        O  0.41560195  0.38196447  0.34216577    -0.66300
Ni434      Ni  0.39902058  0.47919345  0.41876995     1.27400
Ni435      Ni  0.38003603  0.39966610  0.44572372     1.26100
H436        H  0.36991087  0.36735335  0.39427893     0.38800
C437        C  0.62618644  0.48089031  0.25619977     0.80000
N438        N  0.60954228  0.48406988  0.28735373    -0.78300
C439        C  0.57374176  0.48812519  0.28795657     0.82400
N440        N  0.55529912  0.48848072  0.25798548    -0.78300
C441        C  0.57003291  0.48482541  0.22700855     0.82500
N442        N  0.60596669  0.48111938  0.22595871    -0.80000
C443        C  0.48045035  0.73593718  0.84549920     0.80000
N444        N  0.48052731  0.76591827  0.86460152    -0.78300
C445        C  0.48012281  0.76462379  0.90025992     0.82400
N446        N  0.47967797  0.73358026  0.91583595    -0.78300
C447        C  0.47979579  0.70393661  0.89826026     0.82500
N448        N  0.47985353  0.70490951  0.86283698    -0.80000
O449        O  0.45570779  0.62294779  0.03974412    -0.81100
O450        O  0.35637894  0.54520797  0.14469655    -0.65800
O451        O  0.41856340  0.56903831  0.07135260    -1.12400
C452        C  0.32620445  0.64854089  0.04009722     1.05800
O453        O  0.31257773  0.54511438  0.10566096    -0.79000
O454        O  0.30928746  0.56611524  0.03967440    -0.66600
Ni455      Ni  0.46219763  0.58952179  0.07849490     1.34900
C456        C  0.33393224  0.54900076  0.02553966     0.84500
O457        O  0.42730858  0.52546701  0.12874114    -0.79600
O458        O  0.47397592  0.55609668  0.11413545    -0.89800
C459        C  0.32399875  0.53982026  0.13650666     0.84100
O460        O  0.44713370  0.62177443  0.11361278    -0.68000
O461        O  0.30744323  0.63485277  0.06284871    -0.87300
C462        C  0.42959822  0.61550368  0.14057031     0.84900
C463        C  0.46065631  0.53088546  0.12991131     1.06500
H464        H  0.36270995  0.61415585  0.10231773     0.38300
O465        O  0.35975133  0.59336731  0.08941496    -1.10000
O466        O  0.36538101  0.55823473  0.02783309    -0.66600
Ni467      Ni  0.38482614  0.59868841  0.04840996     1.26300
O468        O  0.40866108  0.59087974  0.14218565    -0.66900
O469        O  0.35129095  0.63136574  0.02643788    -0.79200
C470        C  0.44033187  0.61827382  0.01015991     0.84300
O471        O  0.41226850  0.60233213  0.00888460    -0.66300
Ni472      Ni  0.31069276  0.58936510  0.08364214     1.27400
Ni473      Ni  0.39065973  0.55780773  0.10986769     1.26100
H474        H  0.42265332  0.54849651  0.05795928     0.38800
C475        C  0.24343444  0.62696136  0.50488107     0.80000
N476        N  0.21390091  0.60782691  0.50110512    -0.78300
C477        C  0.21649278  0.57258114  0.50414607     0.82400
N478        N  0.24811374  0.55750546  0.51122088    -0.78300
C479        C  0.27750396  0.57497070  0.51469688     0.82500
N480        N  0.27535097  0.61006973  0.51129334    -0.80000
O481        O  0.62627143  0.92650169  0.14942666    -0.81100
O482        O  0.51418072  0.85658768  0.04437104    -0.65800
O483        O  0.59126469  0.87668919  0.10891774    -1.12400
C484        C  0.62025215  0.95114023  0.01707244     1.05800
O485        O  0.55615399  0.85099070  0.00719436    -0.79000
O486        O  0.62026321  0.87091930  0.00290518    -0.66600
Ni487      Ni  0.58651750  0.89598235  0.15304942     1.34900
C488        C  0.63219739  0.85164961  0.02739171     0.84500
O489        O  0.53372945  0.83589539  0.11401440    -0.79600
O490        O  0.54940118  0.86545797  0.16213144    -0.89800
C491        C  0.52427813  0.84832724  0.01372648     0.84100
O492        O  0.55284557  0.93103815  0.13778884    -0.68000
O493        O  0.59543923  0.93913230  0.99864504    -0.87300
C494        C  0.52320541  0.92647502  0.12277687     0.84900
C495        C  0.53393518  0.84093150  0.14703702     1.06500
H496        H  0.55746017  0.92380983  0.05353996     0.38300
O497        O  0.57056514  0.90229373  0.05104708    -1.10000
O498        O  0.63199217  0.86259015  0.05811243    -0.66600
Ni499      Ni  0.61339373  0.90506372  0.07663444     1.26300
O500        O  0.51896647  0.90270894  0.10036540    -0.66900
O501        O  0.63412071  0.93516518  0.04344143    -0.79200
C502        C  0.65510559  0.92115723  0.13380997     0.84300
O503        O  0.65528691  0.90701463  0.10446114    -0.66300
Ni504      Ni  0.57542676  0.89484534  0.00294066     1.27400
Ni505      Ni  0.55070947  0.86803919  0.08010193     1.26100
H506        H  0.60449752  0.85519810  0.11234144     0.38800
C507        C  0.72727438  0.66557102  0.00077163     0.80000
N508        N  0.75813115  0.68180757  0.99486257    -0.78300
C509        C  0.75977133  0.71683915  0.99842679     0.82400
N510        N  0.73099416  0.73500329  0.00706024    -0.78300
C511        C  0.70025504  0.72035957  0.01169271     0.82500
N512        N  0.69791426  0.68544145  0.00827013    -0.80000
O513        O  0.85871216  0.03570196  0.53340432    -0.81100
O514        O  0.93714997  0.13802964  0.63277899    -0.65800
O515        O  0.91528656  0.06462259  0.57014232    -1.12400
C516        C  0.84311537  0.03172297  0.66116747     1.05800
O517        O  0.94400337  0.09780594  0.67299692    -0.79000
O518        O  0.92557928  0.03308941  0.67738972    -0.66600
Ni519      Ni  0.89302066  0.07136076  0.52642424     1.34900
C520        C  0.94406453  0.02027228  0.65364392     0.84500
O521        O  0.95704994  0.12035438  0.56437150    -0.79600
O522        O  0.92774459  0.10391689  0.51575081    -0.89800
C523        C  0.94488790  0.12915293  0.66431849     0.84100
O524        O  0.86047957  0.10895601  0.53778799    -0.68000
O525        O  0.85559135  0.05599352  0.67916472    -0.87300
C526        C  0.86562816  0.13533902  0.55651153     0.84900
C527        C  0.95297211  0.11897351  0.53102604     1.06500
H528        H  0.86990757  0.09510846  0.62474875     0.38300
O529        O  0.89200780  0.08237426  0.62780937    -1.10000
O530        O  0.93318168  0.02184138  0.62213354    -0.66600
Ni531      Ni  0.88861117  0.04116124  0.60256305     1.26300
O532        O  0.88992949  0.13569327  0.57979481    -0.66900
O533        O  0.85930751  0.01880353  0.63557531    -0.79200
C534        C  0.86545640  0.00543564  0.54615397     0.84300
O535        O  0.88466130  0.00214735  0.57349395    -0.66300
Ni536      Ni  0.90019281  0.07678421  0.67602945     1.27400
Ni537      Ni  0.92552987  0.10293429  0.59849660     1.26100
H538        H  0.93688728  0.05170611  0.56645977     0.38800
C539        C  0.72200441  0.98855199  0.72561223     0.80000
N540        N  0.68623656  0.98901161  0.72674262    -0.78300
C541        C  0.67042525  0.98063135  0.75705335     0.82400
N542        N  0.69108489  0.97266509  0.78605831    -0.78300
C543        C  0.72680979  0.97234433  0.78421344     0.82500
N544        N  0.74133692  0.98020079  0.75418050    -0.80000
O545        O  0.94171323  0.83214180  0.87178416    -0.81100
O546        O  0.85445367  0.92905366  0.97462808    -0.65800
O547        O  0.88440424  0.86846061  0.90098387    -1.12400
C548        C  0.95891820  0.96043332  0.87519280     1.05800
O549        O  0.85243070  0.96846837  0.93370013    -0.79000
O550        O  0.87578662  0.97552716  0.87171965    -0.66600
Ni551      Ni  0.90688844  0.82486756  0.90747193     1.34900
C552        C  0.85798448  0.95171201  0.85893745     0.84500
O553        O  0.83781114  0.85997305  0.95336595    -0.79600
O554        O  0.87192953  0.81296729  0.93986984    -0.89800
C555        C  0.84738392  0.96046303  0.96478695     0.84100
O556        O  0.93757994  0.83804356  0.94525868    -0.68000
O557        O  0.94455863  0.97816317  0.89897534    -0.87300
C558        C  0.92819975  0.85263905  0.97316636     0.84900
C559        C  0.84438829  0.82689410  0.95262448     1.06500
H560        H  0.92719996  0.92172575  0.93724486     0.38300
O561        O  0.90627354  0.92515310  0.92286083    -1.10000
O562        O  0.87033207  0.92103140  0.86028916    -0.66600
Ni563      Ni  0.91312348  0.90153213  0.88112086     1.26300
O564        O  0.90278602  0.87481669  0.97365423    -0.66900
O565        O  0.94405243  0.93468569  0.86171180    -0.79200
C566        C  0.93523209  0.84719742  0.84242695     0.84300
O567        O  0.91844559  0.87566479  0.84080814    -0.66300
Ni568      Ni  0.89809295  0.97334035  0.91695979     1.27400
Ni569      Ni  0.87036575  0.89539985  0.93947463     1.26100
H570        H  0.86398521  0.86514283  0.88623412     0.38800
O571        O  0.14918763  0.64197152  0.96010639    -0.81100
O572        O  0.05837102  0.53659905  0.87477967    -0.65800
O573        O  0.11729358  0.61108137  0.90235315    -1.12400
C574        C  0.01703184  0.64455226  0.96510837     1.05800
O575        O  0.01988871  0.57826517  0.86372630    -0.79000
O576        O  0.01015196  0.64283333  0.88048439    -0.66600
Ni577      Ni  0.16008958  0.60504312  0.92736124     1.34900
C578        C  0.03666463  0.65439035  0.86587775     0.84500
O579        O  0.12898284  0.55437683  0.86110613    -0.79600
O580        O  0.17538980  0.57134691  0.89412190    -0.89800
C581        C  0.02708491  0.54638488  0.86510342     0.84100
O582        O  0.14581278  0.56903581  0.95844736    -0.68000
O583        O  0.99950727  0.62182131  0.94932466    -0.87300
C584        C  0.12851088  0.54224444  0.95162485     0.84900
C585        C  0.16232994  0.55610157  0.86775521     1.06500
H586        H  0.05795644  0.58115589  0.94149558     0.38300
O587        O  0.05718229  0.59369806  0.91978265    -1.10000
O588        O  0.06622203  0.65320157  0.88158647    -0.66600
Ni589      Ni  0.08126209  0.63473073  0.92639772     1.26300
O590        O  0.10751485  0.54135197  0.92563227    -0.66900
O591        O  0.04416916  0.65731615  0.95207394    -0.79200
C592        C  0.13595182  0.67190365  0.95186959     0.84300
O593        O  0.10845700  0.67421122  0.93272855    -0.66300
Ni594      Ni  0.00932907  0.60006985  0.90581704     1.27400
Ni595      Ni  0.09081112  0.57248581  0.88921127     1.26100
H596        H  0.12246037  0.62356569  0.88153862     0.38800
C597        C  0.99992504  0.74313336  0.67771948     0.80000
N598        N  0.01067735  0.71502494  0.69791641    -0.78300
C599        C  0.00910941  0.71690764  0.73325028     0.82400
N600        N  0.99730276  0.74613687  0.74767427    -0.78300
C601        C  0.98692373  0.77385638  0.72866544     0.82500
N602        N  0.98808263  0.77264220  0.69347878    -0.80000
C603        C  0.91086268  0.47225864  0.73828427     0.80000
N604        N  0.87518829  0.47354953  0.73754215    -0.78300
C605        C  0.85734665  0.48111606  0.76695222     0.82400
N606        N  0.87593824  0.48722945  0.79731063    -0.78300
C607        C  0.91190386  0.48609766  0.79755057     0.82500
N608        N  0.92805301  0.47899385  0.76802770    -0.80000
C609        C  0.31548403  0.49409676  0.73905298     0.80000
N610        N  0.29568802  0.47993758  0.71293953    -0.78300
C611        C  0.26011621  0.47803462  0.71592547     0.82400
N612        N  0.24488860  0.49025011  0.74460310    -0.78300
C613        C  0.26355616  0.50472349  0.77033828     0.82500
N614        N  0.29899332  0.50657310  0.76768409    -0.80000
C615        C  0.75172236  0.84001153  0.49502479     0.80000
N616        N  0.72015094  0.85778839  0.49047259    -0.78300
C617        C  0.71828352  0.89284270  0.49265937     0.82400
N618        N  0.74777276  0.90974005  0.49952453    -0.78300
C619        C  0.77922465  0.89321608  0.50417024     0.82500
N620        N  0.78143063  0.85803080  0.50179978    -0.80000
C621        C  0.99917738  0.27747131  0.43361469     0.80000
N622        N  0.99942156  0.27595248  0.39831665    -0.78300
C623        C  0.00101183  0.24452591  0.38231923     0.82400
N624        N  0.00317499  0.21503131  0.40229019    -0.78300
C625        C  0.00347569  0.21697987  0.43767054     0.82500
N626        N  0.00067875  0.24811877  0.45222345    -0.80000
C627        C  0.97990050  0.21904860  0.77791321     0.80000
N628        N  0.97969957  0.21845251  0.81349789    -0.78300
C629        C  0.99003017  0.24680705  0.83191292     0.82400
N630        N  0.00025737  0.27533175  0.81392884    -0.78300
C631        C  0.00134809  0.27490655  0.77852672     0.82500
N632        N  0.99105456  0.24696805  0.76157786    -0.80000
C633        C  0.47098613  0.73098325  0.30935376     0.80000
N634        N  0.48161232  0.75827485  0.28991419    -0.78300
C635        C  0.48004393  0.75695486  0.25456636     0.82400
N636        N  0.46793972  0.72891457  0.23903613    -0.78300
C637        C  0.45769998  0.70163437  0.25708442     0.82500
N638        N  0.45953691  0.70215582  0.29259957    -0.80000
C639        C  0.76932764  0.99338404  0.26930350     0.80000
N640        N  0.75380695  0.97958776  0.24129415    -0.78300
C641        C  0.77235534  0.96698260  0.21487446     0.82400
N642        N  0.80827804  0.96823850  0.21629242    -0.78300
C643        C  0.82511814  0.98187051  0.24478054     0.82500
N644        N  0.80516760  0.99449509  0.27128190    -0.80000
C645        C  0.28114553  0.78153139  0.99131066     0.80000
N646        N  0.28322647  0.81664463  0.99210116    -0.78300
C647        C  0.25377637  0.83740937  0.98470214     0.82400
N648        N  0.22188135  0.82214651  0.97964952    -0.78300
C649        C  0.22039452  0.78687171  0.97974228     0.82500
N650        N  0.25018405  0.76792761  0.98447922    -0.80000
C651        C  0.73894686  0.30312047  0.50823250     0.80000
N652        N  0.76776984  0.28485536  0.52209086    -0.78300
C653        C  0.76823032  0.24953778  0.52378616     0.82400
N654        N  0.74071076  0.23287746  0.51049700    -0.78300
C655        C  0.71242042  0.24979865  0.49603382     0.82500
N656        N  0.71119938  0.28514916  0.49516114    -0.80000
C657        C  0.16661161  0.48587869  0.26308807     0.80000
N658        N  0.18634558  0.47755169  0.29262621    -0.78300
C659        C  0.22218265  0.47686533  0.29184549     0.82400
N660        N  0.23772363  0.48508191  0.26244262    -0.78300
C661        C  0.21975089  0.49360301  0.23303478     0.82500
N662        N  0.18371035  0.49388549  0.23313237    -0.80000
C663        C  0.26465837  0.43128824  0.98540308     0.80000
N664        N  0.23304646  0.44593250  0.99026094    -0.78300
C665        C  0.20464574  0.42798182  0.99630965     0.82400
N666        N  0.20749659  0.39268204  0.99679728    -0.78300
C667        C  0.23971384  0.37635083  0.99209398     0.82500
N668        N  0.26846136  0.39609983  0.98681905    -0.80000
C669        C  0.36766414  0.98830160  0.24611803     0.80000
N670        N  0.38290388  0.98155358  0.21490808    -0.78300
C671        C  0.41871779  0.97903719  0.21269560     0.82400
N672        N  0.43873762  0.98373100  0.24154637    -0.78300
C673        C  0.42507701  0.99071454  0.27262346     0.82500
N674        N  0.38918582  0.99277861  0.27498131    -0.80000
C675        C  0.49361493  0.25845269  0.17529185     0.80000
N676        N  0.50606742  0.23137553  0.19623516    -0.78300
C677        C  0.51056494  0.23620120  0.23132812     0.82400
N678        N  0.50246778  0.26718505  0.24451444    -0.78300
C679        C  0.48921247  0.29339138  0.22489666     0.82500
N680        N  0.48420057  0.28906408  0.19026638    -0.80000
C681        C  0.25083450  0.16191230  0.50341031     0.80000
N682        N  0.22284644  0.18070497  0.51632954    -0.78300
C683        C  0.22562216  0.21528497  0.52235204     0.82400
N684        N  0.25532893  0.23058012  0.51490506    -0.78300
C685        C  0.28249409  0.21367099  0.50109185     0.82500
N686        N  0.28052494  0.17902954  0.49501151    -0.80000
C687        C  0.97689748  0.71032708  0.08878430     0.80000
N688        N  0.97583540  0.70858585  0.12419390    -0.78300
C689        C  0.97135581  0.73826051  0.14293483     0.82400
N690        N  0.96830475  0.76932819  0.12556944    -0.78300
C691        C  0.96967501  0.77061993  0.09022805     0.82500
N692        N  0.97392030  0.74115447  0.07269192    -0.80000
C693        C  0.69604057  0.07129053  0.00634644     0.80000
N694        N  0.69457492  0.10637315  0.00692158    -0.78300
C695        C  0.72492780  0.12414334  0.00938202     0.82400
N696        N  0.75671516  0.10599041  0.01062744    -0.78300
C697        C  0.75771595  0.07060670  0.01018071     0.82500
N698        N  0.72734954  0.05440529  0.00820513    -0.80000
C699        C  0.06879851  0.98586346  0.73214409     0.80000
N700        N  0.05509580  0.98822531  0.76374346    -0.78300
C701        C  0.07495693  0.98842711  0.79298474     0.82400
N702        N  0.11074899  0.98678598  0.79083374    -0.78300
C703        C  0.12612594  0.98542834  0.75899436     0.82500
N704        N  0.10469540  0.98470066  0.72951121    -0.80000
C705        C  0.14487614  0.73550953  0.94543116    -0.06000
C706        C  0.15183335  0.70459554  0.96465817    -0.00100
C707        C  0.17398560  0.70608034  0.99471543    -0.08700
C708        C  0.19019830  0.73716242  0.00236206    -0.06000
C709        C  0.18819402  0.76588849  0.97964611    -0.00100
C710        C  0.16305743  0.76603243  0.95224024    -0.08600
C711        C  0.15628154  0.79793249  0.93004784     0.61800
H712        H  0.12674288  0.73507515  0.92342979     0.12500
H713        H  0.20849325  0.73784675  0.02426224     0.12500
C714        C  0.18250974  0.67490394  0.01791885     0.62000
F715        F  0.12873139  0.79407825  0.90654957    -0.23100
F716        F  0.18586424  0.80500928  0.91196756    -0.20400
F717        F  0.14791759  0.82547159  0.95100643    -0.20100
F718        F  0.20294187  0.65108362  0.00049139    -0.20200
F719        F  0.15208213  0.66010759  0.02783226    -0.20500
F720        F  0.20087389  0.68352441  0.04775242    -0.23200
C721        C  0.15809392  0.51157470  0.00221604    -0.06000
C722        C  0.13569737  0.50973700  0.97295377    -0.00100
C723        C  0.12566004  0.47615740  0.96236206    -0.08700
C724        C  0.14496711  0.44676820  0.97551171    -0.06000
C725        C  0.17211464  0.44979542  0.00017583    -0.00100
C726        C  0.17532676  0.48209542  0.01679511    -0.08600
C727        C  0.20077820  0.48734876  0.04694341     0.61800
H728        H  0.16425956  0.53650575  0.01253364     0.12500
H729        H  0.14178907  0.42199019  0.96353085     0.12500
C730        C  0.09632626  0.47070877  0.93605678     0.62000
F731        F  0.18391730  0.50528286  0.07270533    -0.23100
F732        F  0.21384242  0.45645488  0.06098285    -0.20400
F733        F  0.22839289  0.50625874  0.03593009    -0.20100
F734        F  0.10653114  0.48044590  0.90367100    -0.20200
F735        F  0.06670726  0.48977573  0.94487916    -0.20500
F736        F  0.08755135  0.43653102  0.93456293    -0.23200
C737        C  0.97046368  0.66012348  0.00750389    -0.06000
C738        C  0.00621975  0.65578260  0.00045365    -0.00100
C739        C  0.03102665  0.66007525  0.02818813    -0.08700
C740        C  0.01951744  0.67272973  0.06019974    -0.06000
C741        C  0.98416177  0.68063213  0.06587948    -0.00100
C742        C  0.95909926  0.67201922  0.03988411    -0.08600
C743        C  0.92013888  0.67732599  0.04473489     0.61800
H744        H  0.95116971  0.65529443  0.98720639     0.12500
H745        H  0.03859747  0.68005737  0.07978580     0.12500
C746        C  0.06997806  0.65372880  0.02391424     0.62000
F747        F  0.90300797  0.64846085  0.03387265    -0.23100
F748        F  0.90779108  0.70537502  0.02517095    -0.20400
F749        F  0.91237838  0.68273426  0.07902998    -0.20100
F750        F  0.08294565  0.68118881  0.00608979    -0.20200
F751        F  0.07661957  0.62358013  0.00616572    -0.20500
F752        F  0.08756694  0.65067144  0.05566468    -0.23200
C753        C  0.21150698  0.56485507  0.82822841    -0.06000
C754        C  0.18883914  0.54171404  0.84355095    -0.00100
C755        C  0.19543085  0.50605738  0.83915692    -0.08700
C756        C  0.22232166  0.49484405  0.81718460    -0.06000
C757        C  0.24357756  0.51803362  0.80021754    -0.00100
C758        C  0.23872720  0.55364021  0.80649719    -0.08600
C759        C  0.26150499  0.57959655  0.78939293     0.61800
H760        H  0.20734894  0.59204869  0.83309002     0.12500
H761        H  0.22615023  0.46767677  0.81198248     0.12500
C762        C  0.17411483  0.48007639  0.85764535     0.62000
F763        F  0.25229536  0.61300856  0.79838186    -0.23100
F764        F  0.25820409  0.57713314  0.75379622    -0.20400
F765        F  0.29613159  0.57310899  0.79954739    -0.20100
F766        F  0.13974106  0.48336713  0.84568852    -0.20200
F767        F  0.17594370  0.48587088  0.89287907    -0.20500
F768        F  0.18616560  0.44666184  0.85204108    -0.23200
C769        C  0.96294859  0.53756568  0.86260673    -0.06000
C770        C  0.99708524  0.52335425  0.85739251    -0.00100
C771        C  0.00012085  0.49088816  0.84143180    -0.08700
C772        C  0.96944945  0.47627785  0.82770782    -0.06000
C773        C  0.93625480  0.49383403  0.82737782    -0.00100
C774        C  0.93255578  0.52369478  0.84748696    -0.08600
C775        C  0.89722235  0.54200111  0.85123075     0.61800
H776        H  0.96035318  0.56142214  0.87663358     0.12500
H777        H  0.97177218  0.45238512  0.81368109     0.12500
C778        C  0.03532057  0.47241892  0.83733549     0.62000
F779        F  0.89902145  0.56938101  0.87372535    -0.23100
F780        F  0.87381438  0.51920825  0.86411609    -0.20400
F781        F  0.88490500  0.55455967  0.81941143    -0.20100
F782        F  0.04957067  0.46422536  0.86965974    -0.20200
F783        F  0.05761115  0.49316853  0.81981137    -0.20500
F784        F  0.03249677  0.44215675  0.81908824    -0.23200
C785        C  0.05222928  0.69872008  0.77789684    -0.06000
C786        C  0.02218347  0.69019282  0.75856938    -0.00100
C787        C  0.99860379  0.66770393  0.77363287    -0.08700
C788        C  0.00469538  0.65633111  0.80824092    -0.06000
C789        C  0.03318395  0.66738511  0.82888230    -0.00100
C790        C  0.05798953  0.68847575  0.81286426    -0.08600
C791        C  0.08935570  0.70224114  0.83263896     0.61800
H792        H  0.06950374  0.71666215  0.76621760     0.12500
H793        H  0.98643901  0.63927977  0.81970854     0.12500
C794        C  0.96630908  0.65700965  0.75334308     0.62000
F795        F  0.10686470  0.72590298  0.81329775    -0.23100
F796        F  0.11295631  0.67557160  0.84128616    -0.20400
F797        F  0.07842366  0.71854353  0.86228095    -0.20100
F798        F  0.97632986  0.64189907  0.72277909    -0.20200
F799        F  0.94457337  0.68546833  0.74575060    -0.20500
F800        F  0.94741780  0.63358844  0.77159405    -0.23200
C801        C  0.99771885  0.00344647  0.84875772    -0.06000
C802        C  0.99383054  0.97013263  0.86183699    -0.00100
C803        C  0.02297757  0.94627423  0.86053217    -0.08700
C804        C  0.05307318  0.95523556  0.84235005    -0.06000
C805        C  0.05513722  0.98729537  0.82572382    -0.00100
C806        C  0.02804659  0.01252877  0.83129529    -0.08600
C807        C  0.02849617  0.04810729  0.81527440     0.61800
H808        H  0.97603862  0.02206385  0.85045781     0.12500
H809        H  0.07349712  0.93587740  0.83787172     0.12500
C810        C  0.02187909  0.91090572  0.87713782     0.62000
F811        F  0.01512240  0.07221315  0.83793239    -0.23100
F812        F  0.00801203  0.04897992  0.78519139    -0.20400
F813        F  0.06215459  0.05703491  0.80774442    -0.20100
F814        F  0.99888867  0.89120795  0.85858741    -0.20200
F815        F  0.01097843  0.91374296  0.91080591    -0.20500
F816        F  0.05443990  0.89402596  0.87793576    -0.23200
C817        C  0.83724663  0.02333704  0.97401231    -0.06000
C818        C  0.83207264  0.98940261  0.98623574    -0.00100
C819        C  0.80855486  0.98538113  0.01338530    -0.08700
C820        C  0.78874192  0.01462840  0.02447365    -0.06000
C821        C  0.78993122  0.04735517  0.00805888    -0.00100
C822        C  0.81566045  0.05194818  0.98311988    -0.08600
C823        C  0.81810354  0.08579770  0.96360103     0.61800
H824        H  0.85649730  0.02687111  0.95445529     0.12500
H825        H  0.76932686  0.01133453  0.04395048     0.12500
C826        C  0.80275364  0.95031785  0.02911778     0.62000
F827        F  0.84508824  0.08490090  0.94048540    -0.23100
F828        F  0.82407756  0.11198392  0.98668532    -0.20400
F829        F  0.78717929  0.09302328  0.94501569    -0.20100
F830        F  0.83403344  0.93678955  0.04319216    -0.20200
F831        F  0.79035161  0.92851808  0.00392977    -0.20500
F832        F  0.77863030  0.95200851  0.05511492    -0.23200
C833        C  0.92111502  0.83821010  0.03533376    -0.06000
C834        C  0.94391259  0.84046291  0.00736840    -0.00100
C835        C  0.97871081  0.82698727  0.01199837    -0.08700
C836        C  0.98797279  0.80817711  0.04259580    -0.06000
C837        C  0.96371123  0.80234918  0.06862374    -0.00100
C838        C  0.93022544  0.81892279  0.06562549    -0.08600
C839        C  0.90325937  0.81371680  0.09301679     0.61800
H840        H  0.89471862  0.84905093  0.03207774     0.12500
H841        H  0.01345248  0.79504196  0.04486464     0.12500
C842        C  0.00552387  0.83046145  0.98416215     0.62000
F843        F  0.91611723  0.82499174  0.12453590    -0.23100
F844        F  0.87206766  0.83172763  0.08523802    -0.20400
F845        F  0.89620045  0.77922384  0.09581105    -0.20100
F846        F  0.00292339  0.86307885  0.96949461    -0.20200
F847        F  0.00001334  0.80628876  0.95880258    -0.20500
F848        F  0.03928492  0.82536502  0.99764496    -0.23200
C849        C  0.98461532  0.82896531  0.80557163    -0.06000
C850        C  0.94843222  0.83294006  0.80960264    -0.00100
C851        C  0.92544110  0.82557387  0.78125574    -0.08700
C852        C  0.93945516  0.81033488  0.75143462    -0.06000
C853        C  0.97557087  0.80418389  0.74852919    -0.00100
C854        C  0.99853613  0.81623156  0.77480834    -0.08600
C855        C  0.03802037  0.81506368  0.77174559     0.61800
H856        H  0.00229138  0.83598288  0.82649252     0.12500
H857        H  0.92218183  0.80076460  0.73133612     0.12500
C858        C  0.88615015  0.83232692  0.78310946     0.62000
F859        F  0.05011436  0.84783813  0.77620602    -0.23100
F860        F  0.04858652  0.80363763  0.73979363    -0.20400
F861        F  0.05315608  0.79357882  0.79714615    -0.20100
F862        F  0.87884529  0.86733528  0.78482977    -0.20200
F863        F  0.87363808  0.81631864  0.81209590    -0.20500
F864        F  0.86838814  0.82013859  0.75431981    -0.23200
C865        C  0.77017805  0.99468439  0.82515290    -0.06000
C866        C  0.75211333  0.96602372  0.81358673    -0.00100
C867        C  0.76765519  0.93293720  0.81944112    -0.08700
C868        C  0.80179427  0.92971754  0.83437857    -0.06000
C869        C  0.82138512  0.95855150  0.84368702    -0.00100
C870        C  0.80431070  0.99180562  0.84036255    -0.08600
C871        C  0.82164907  0.02451781  0.85176728     0.61800
H872        H  0.75810458  0.01985919  0.81968016     0.12500
H873        H  0.81369538  0.90422105  0.83803151     0.12500
C874        C  0.74847811  0.90121513  0.80851714     0.62000
F875        F  0.80034934  0.05357391  0.84522400    -0.23100
F876        F  0.85224227  0.02841488  0.83417789    -0.20400
F877        F  0.82887735  0.02306853  0.88698142    -0.20100
F878        F  0.74437275  0.90068897  0.77287974    -0.20200
F879        F  0.71583999  0.90182693  0.82304794    -0.20500
F880        F  0.76636037  0.87117992  0.81919965    -0.23200
C881        C  0.97780974  0.14161495  0.71897551    -0.06000
C882        C  0.95370275  0.15361870  0.69273958    -0.00100
C883        C  0.93475359  0.18502925  0.69799509    -0.08700
C884        C  0.94141460  0.20352506  0.72866043    -0.06000
C885        C  0.96638550  0.19208175  0.75431649    -0.00100
C886        C  0.98470861  0.16039955  0.74940596    -0.08600
C887        C  0.01209864  0.14701476  0.77576941     0.61800
H888        H  0.99159358  0.11715848  0.71528700     0.12500
H889        H  0.92823519  0.22832868  0.73217055     0.12500
C890        C  0.90732983  0.19886180  0.67171574     0.62000
F891        F  0.02661923  0.11546494  0.76645093    -0.23100
F892        F  0.99687848  0.14321774  0.80750490    -0.20400
F893        F  0.03879054  0.16989345  0.77878588    -0.20100
F894        F  0.88176336  0.17502875  0.66669877    -0.20200
F895        F  0.92288505  0.20543332  0.64062788    -0.20500
F896        F  0.89116358  0.22918801  0.68247346    -0.23200
C897        C  0.99024206  0.15546624  0.44893991    -0.06000
C898        C  0.00286218  0.18641015  0.46145855    -0.00100
C899        C  0.00917429  0.18926855  0.49798020    -0.08700
C900        C  0.99399962  0.16581071  0.52037293    -0.06000
C901        C  0.97665313  0.13741244  0.50767568    -0.00100
C902        C  0.97895778  0.12987901  0.47166466    -0.08600
C903        C  0.96922391  0.09553702  0.45652770     0.61800
H904        H  0.98753991  0.15190216  0.42125519     0.12500
H905        H  0.99450783  0.17059430  0.54794078     0.12500
C906        C  0.03023610  0.21742220  0.51448503     0.62000
F907        F  0.98717724  0.08903413  0.42653865    -0.23100
F908        F  0.93373667  0.09571150  0.44854783    -0.20400
F909        F  0.97803373  0.06903421  0.47967778    -0.20100
F910        F  0.00815179  0.24490561  0.52272961    -0.20200
F911        F  0.05574467  0.22828564  0.49266820    -0.20500
F912        F  0.04714161  0.20533559  0.54461544    -0.23200
C913        C  0.97977747  0.97755297  0.68938681    -0.06000
C914        C  0.97912975  0.00373106  0.66424427    -0.00100
C915        C  0.01176267  0.01731571  0.65490587    -0.08700
C916        C  0.04267844  0.00827288  0.67503956    -0.06000
C917        C  0.04235259  0.98434277  0.70251239    -0.00100
C918        C  0.01098279  0.96623200  0.70700755    -0.08600
C919        C  0.00874731  0.93555557  0.73131839     0.61800
H920        H  0.95535733  0.96608756  0.69585302     0.12500
H921        H  0.06656510  0.02164896  0.67100602     0.12500
C922        C  0.01379352  0.04207648  0.62461149     0.62000
F923        F  0.99240536  0.90926635  0.71413889    -0.23100
F924        F  0.98922888  0.94486064  0.75953010    -0.20400
F925        F  0.04135343  0.92283408  0.74280971    -0.20100
F926        F  0.99427715  0.07184546  0.63062505    -0.20200
F927        F  0.00091253  0.02682509  0.59496867    -0.20500
F928        F  0.04791786  0.05087646  0.61889290    -0.23200
C929        C  0.81390464  0.17381920  0.57098255    -0.06000
C930        C  0.84317538  0.16766448  0.55057100    -0.00100
C931        C  0.85148679  0.19335377  0.52591522    -0.08700
C932        C  0.82823025  0.22229158  0.52001651    -0.06000
C933        C  0.79780325  0.22731654  0.53905536    -0.00100
C934        C  0.79179629  0.20365230  0.56634766    -0.08600
C935        C  0.76119550  0.20857862  0.59005784     0.61800
H936        H  0.80817030  0.15503013  0.59069979     0.12500
H937        H  0.83269931  0.24025502  0.49918511     0.12500
C938        C  0.88483493  0.19010916  0.50580756     0.62000
F939        F  0.77079724  0.19768328  0.62330052    -0.23100
F940        F  0.73363750  0.18951746  0.57813996    -0.20400
F941        F  0.75025756  0.24282300  0.59175718    -0.20100
F942        F  0.88482254  0.16048763  0.48638503    -0.20200
F943        F  0.91330615  0.18877078  0.52869704    -0.20500
F944        F  0.88843682  0.21780422  0.48359185    -0.23200
C945        C  0.81254921  0.94408492  0.48880047    -0.06000
C946        C  0.80954273  0.91561884  0.51111878    -0.00100
C947        C  0.82908318  0.91476752  0.54272880    -0.08700
C948        C  0.84880647  0.94359540  0.55192989    -0.06000
C949        C  0.84846114  0.97396366  0.53144087    -0.00100
C950        C  0.83190127  0.97303291  0.49801775    -0.08600
C951        C  0.83457490  0.00198371  0.47169826     0.61800
H952        H  0.79767046  0.94432600  0.46451211     0.12500
H953        H  0.86388072  0.94286850  0.57598995     0.12500
C954        C  0.82789323  0.88416902  0.56719892     0.62000
F955        F  0.82243330  0.99260758  0.43917571    -0.23100
F956        F  0.86920288  0.01045703  0.46884070    -0.20400
F957        F  0.81483716  0.03048306  0.48169344    -0.20100
F958        F  0.84044571  0.85497435  0.55084842    -0.20200
F959        F  0.79381453  0.87945098  0.57676765    -0.20500
F960        F  0.84813563  0.88854000  0.59698743    -0.23200
C961        C  0.78200171  0.04419267  0.67893458    -0.06000
C962        C  0.80783743  0.01930295  0.67007016    -0.00100
C963        C  0.79950874  0.98408148  0.67126387    -0.08700
C964        C  0.76660720  0.97509295  0.68353273    -0.06000
C965        C  0.74247203  0.99982259  0.69598571    -0.00100
C966        C  0.74962235  0.03502039  0.69222511    -0.08600
C967        C  0.72427819  0.06259023  0.70514571     0.61800
H968        H  0.78814942  0.07108529  0.67713794     0.12500
H969        H  0.76103286  0.94823641  0.68726020     0.12500
C970        C  0.82598234  0.95593641  0.66208841     0.62000
F971        F  0.73447570  0.09531639  0.69670918    -0.23100
F972        F  0.72241211  0.06022543  0.74075550    -0.20400
F973        F  0.69139389  0.05818341  0.69037886    -0.20100
F974        F  0.85677300  0.95946575  0.68120395    -0.20200
F975        F  0.83258098  0.95824749  0.62734698    -0.20500
F976        F  0.81401167  0.92343012  0.66860512    -0.23200
C977        C  0.78462827  0.75102008  0.95256151    -0.06000
C978        C  0.78866963  0.73836647  0.98666147    -0.00100
C979        C  0.80928186  0.75728525  0.01049303    -0.08700
C980        C  0.82491908  0.78782479  0.99939490    -0.06000
C981        C  0.81984028  0.80096503  0.96554058    -0.00100
C982        C  0.79950959  0.78191561  0.94167222    -0.08600
C983        C  0.79283875  0.79478611  0.90477441     0.61800
H984        H  0.76749962  0.73757856  0.93493421     0.12500
H985        H  0.84191391  0.80118671  0.01726209     0.12500
C986        C  0.81548743  0.74641949  0.04797310     0.62000
F987        F  0.77051693  0.77398644  0.88636047    -0.23100
F988        F  0.82398599  0.79553081  0.88757399    -0.20400
F989        F  0.77767135  0.82760614  0.90520920    -0.20100
F990        F  0.80098764  0.71535814  0.05573814    -0.20200
F991        F  0.80132954  0.77140087  0.06918246    -0.20500
F992        F  0.85109536  0.74302590  0.05499609    -0.23200
C993        C  0.46892096  0.98979041  0.17528583    -0.06000
C994        C  0.43826698  0.97149829  0.18014050    -0.00100
C995        C  0.43236048  0.94282360  0.15864458    -0.08700
C996        C  0.45940776  0.93087574  0.13676468    -0.06000
C997        C  0.49186656  0.94699544  0.13528046    -0.00100
C998        C  0.49513989  0.97882551  0.15252450    -0.08600
C999        C  0.52688606  0.00083284  0.14947165     0.61800
H1000       H  0.47328108  0.01231209  0.19090335     0.12500
H1001       H  0.45637757  0.90709734  0.12288787     0.12500
C1002       C  0.39860012  0.92382225  0.16019785     0.62000
F1003       F  0.51674440  0.03534543  0.15002071    -0.23100
F1004       F  0.54378106  0.99516128  0.11877158    -0.20400
F1005       F  0.54996455  0.99376984  0.17706686    -0.20100
F1006       F  0.37062354  0.94631882  0.15213186    -0.20200
F1007       F  0.39485853  0.91043170  0.19305180    -0.20500
F1008       F  0.39779144  0.89701274  0.13694643    -0.23200
C1009       C  0.73230882  0.97514736  0.16346751    -0.06000
C1010       C  0.75116476  0.95207124  0.18602279    -0.00100
C1011       C  0.74006636  0.91778599  0.18842472    -0.08700
C1012       C  0.70929434  0.90834564  0.17014656    -0.06000
C1013       C  0.68905572  0.93216955  0.14974558    -0.00100
C1014       C  0.70169046  0.96560949  0.14490522    -0.08600
C1015       C  0.68233316  0.99117958  0.12070234     0.61800
H1016       H  0.74043813  0.00148863  0.16227461     0.12500
H1017       H  0.69992739  0.88256766  0.17291829     0.12500
C1018       C  0.75970834  0.89190727  0.21204925     0.62000
F1019       F  0.69899822  0.02209276  0.11894671    -0.23100
F1020       F  0.64877082  0.99765409  0.13200951    -0.20400
F1021       F  0.68051830  0.97774640  0.08776174    -0.20100
F1022       F  0.75580421  0.90123641  0.24617334    -0.20200
F1023       F  0.79489894  0.89106880  0.20463772    -0.20500
F1024       F  0.74756025  0.85908594  0.20793628    -0.23200
C1025       C  0.66950394  0.02343100  0.97655993    -0.06000
C1026       C  0.66552135  0.04922012  0.00163185    -0.00100
C1027       C  0.64114506  0.04485559  0.02794031    -0.08700
C1028       C  0.62516146  0.01285020  0.03093584    -0.06000
C1029       C  0.63306793  0.98554148  0.00850970    -0.00100
C1030       C  0.65452993  0.99117990  0.98012448    -0.08600
C1031       C  0.66408406  0.96231465  0.95564986     0.61800
H1032       H  0.68807007  0.02729704  0.95637491     0.12500
H1033       H  0.60780763  0.00825255  0.05199786     0.12500
C1034       C  0.63331208  0.07326460  0.05340032     0.62000
F1035       F  0.68615730  0.97294987  0.93022294    -0.23100
F1036       F  0.63412464  0.95054791  0.93961048    -0.20400
F1037       F  0.68094827  0.93555405  0.97405745    -0.20100
F1038       F  0.62195224  0.10273901  0.03546615    -0.20200
F1039       F  0.66312715  0.08004330  0.07284541    -0.20500
F1040       F  0.60739279  0.06450351  0.07578708    -0.23200
C1041       C  0.48987362  0.83078860  0.19126073    -0.06000
C1042       C  0.51737924  0.81735389  0.17133338    -0.00100
C1043       C  0.53507126  0.78635156  0.18214100    -0.08700
C1044       C  0.52383242  0.76915696  0.21174696    -0.06000
C1045       C  0.49585328  0.78203333  0.23122214    -0.00100
C1046       C  0.47851896  0.81334658  0.22092157    -0.08600
C1047       C  0.44810849  0.82786649  0.24112069     0.61800
H1048       H  0.47781883  0.85549161  0.18372748     0.12500
H1049       H  0.53625787  0.74468596  0.21948844     0.12500
C1050       C  0.56631627  0.77198306  0.16286103     0.62000
F1051       F  0.43551940  0.85916889  0.22767845    -0.23100
F1052       F  0.45886461  0.83270022  0.27512219    -0.20400
F1053       F  0.42106335  0.80524078  0.24023025    -0.20100
F1054       F  0.59272129  0.79533626  0.16348150    -0.20200
F1055       F  0.55635979  0.76579428  0.12890221    -0.20500
F1056       F  0.57967351  0.74142152  0.17745756    -0.23200
C1057       C  0.64840643  0.79248662  0.05016446    -0.06000
C1058       C  0.64475274  0.81499700  0.02117628    -0.00100
C1059       C  0.65127647  0.80109957  0.98788605    -0.08700
C1060       C  0.66337984  0.76643808  0.98552833    -0.06000
C1061       C  0.67041713  0.74540283  0.01485906    -0.00100
C1062       C  0.66145012  0.75817445  0.04755649    -0.08600
C1063       C  0.66742353  0.73588287  0.07971779     0.61800
H1064       H  0.64211174  0.80223992  0.07543077     0.12500
H1065       H  0.67104256  0.75633740  0.96075240     0.12500
C1066       C  0.64742556  0.82266870  0.95489868     0.62000
F1067       F  0.65355379  0.75130838  0.10864800    -0.23100
F1068       F  0.70292389  0.72970761  0.08590685    -0.20400
F1069       F  0.65153586  0.70486158  0.07492925    -0.20100
F1070       F  0.66774924  0.85124507  0.95771428    -0.20200
F1071       F  0.61269543  0.83286992  0.94909068    -0.20500
F1072       F  0.65814385  0.80458046  0.92617823    -0.23200
C1073       C  0.26367663  0.54307606  0.16033648    -0.06000
C1074       C  0.29768314  0.52720968  0.16159403    -0.00100
C1075       C  0.30348890  0.49776949  0.18297088    -0.08700
C1076       C  0.27560400  0.48564213  0.20231696    -0.06000
C1077       C  0.24226499  0.50277767  0.20305382    -0.00100
C1078       C  0.23609660  0.53184013  0.18106816    -0.08600
C1079       C  0.20096103  0.55126511  0.17989868     0.61800
H1080       H  0.25900390  0.56503999  0.14318418     0.12500
H1081       H  0.28042709  0.46329806  0.21893097     0.12500
C1082       C  0.33920863  0.47974180  0.18633641     0.62000
F1083       F  0.20077624  0.57951978  0.15784318    -0.23100
F1084       F  0.19304257  0.56286467  0.21254485    -0.20400
F1085       F  0.17529493  0.52969282  0.16829357    -0.20100
F1086       F  0.36198307  0.50136833  0.20281693    -0.20200
F1087       F  0.35135364  0.47159118  0.15399440    -0.20500
F1088       F  0.33856724  0.44958593  0.20559885    -0.23200
C1089       C  0.32127878  0.45383249  0.00700757    -0.06000
C1090       C  0.29329700  0.45622422  0.98272289    -0.00100
C1091       C  0.28546529  0.48880685  0.96637037    -0.08700
C1092       C  0.30014084  0.51854226  0.98009264    -0.06000
C1093       C  0.32535569  0.51665622  0.00702455    -0.00100
C1094       C  0.33825667  0.48357749  0.01871605    -0.08600
C1095       C  0.36891110  0.47977486  0.04439400     0.61800
H1096       H  0.32765115  0.42904855  0.01903173     0.12500
H1097       H  0.29115906  0.54360668  0.97015302     0.12500
C1098       C  0.25929225  0.49373184  0.93627464     0.62000
F1099       F  0.37602076  0.44575234  0.05381908    -0.23100
F1100       F  0.36200795  0.49802690  0.07404091    -0.20400
F1101       F  0.39839696  0.49217376  0.02946741    -0.20100
F1102       F  0.22926693  0.51062015  0.94746093    -0.20200
F1103       F  0.25047161  0.46278529  0.92169957    -0.20500
F1104       F  0.27362583  0.51351013  0.91075003    -0.23200
C1105       C  0.32993190  0.69700926  0.99661961    -0.06000
C1106       C  0.31936447  0.68588010  0.02942961    -0.00100
C1107       C  0.30513041  0.71133870  0.05202542    -0.08700
C1108       C  0.30083479  0.74588180  0.04033346    -0.06000
C1109       C  0.30737704  0.75589753  0.00622344    -0.00100
C1110       C  0.32344670  0.73124241  0.98444289    -0.08600
C1111       C  0.33256335  0.74118567  0.94787458     0.61800
H1112       H  0.34179205  0.67823369  0.97971220     0.12500
H1113       H  0.28758055  0.76462766  0.05638912     0.12500
C1114       C  0.29283209  0.70250045  0.08795784     0.62000
F1115       F  0.34962299  0.71441855  0.93111557    -0.23100
F1116       F  0.35435060  0.76875260  0.94897087    -0.20400
F1117       F  0.30249426  0.75047287  0.92875196    -0.20100
F1118       F  0.31927462  0.68520006  0.10673004    -0.20200
F1119       F  0.26404092  0.68215640  0.08534520    -0.20500
F1120       F  0.28323351  0.73154059  0.10635562    -0.23200
C1121       C  0.41519995  0.67607532  0.21693425    -0.06000
C1122       C  0.44728767  0.67207951  0.23554182    -0.00100
C1123       C  0.47326864  0.64884346  0.22289078    -0.08700
C1124       C  0.46647659  0.63081959  0.19194221    -0.06000
C1125       C  0.43496843  0.63602919  0.17265712    -0.00100
C1126       C  0.40867543  0.65856924  0.18566325    -0.08600
C1127       C  0.37487749  0.66576648  0.16514821     0.61800
H1128       H  0.39619983  0.69513098  0.22577464     0.12500
H1129       H  0.48612422  0.61298743  0.18210536     0.12500
C1130       C  0.50870112  0.64446529  0.24140937     0.62000
F1131       F  0.35430817  0.69147866  0.17975349    -0.23100
F1132       F  0.35581490  0.63630565  0.16364727    -0.20400
F1133       F  0.38265404  0.67615552  0.13202941    -0.20100
F1134       F  0.50409463  0.63463765  0.27536821    -0.20200
F1135       F  0.52578105  0.67516865  0.24088305    -0.20500
F1136       F  0.52987603  0.61968305  0.22610471    -0.23200
C1137       C  0.46647827  0.79089573  0.95755382    -0.06000
C1138       C  0.48183825  0.79487446  0.92476509    -0.00100
C1139       C  0.50375694  0.82301549  0.92047023    -0.08700
C1140       C  0.51319741  0.84257550  0.94991470    -0.06000
C1141       C  0.50217443  0.83491021  0.98384571    -0.00100
C1142       C  0.47642825  0.81009550  0.98710053    -0.08600
C1143       C  0.46100297  0.80256422  0.02184234     0.61800
H1144       H  0.44834450  0.77045187  0.96063044     0.12500
H1145       H  0.53178382  0.86264813  0.94700199     0.12500
C1146       C  0.51887735  0.83119359  0.88564623     0.62000
F1147       F  0.43568514  0.77810952  0.01944059    -0.23100
F1148       F  0.44559685  0.83239438  0.03455877    -0.20400
F1149       F  0.48709435  0.79043879  0.04482665    -0.20100
F1150       F  0.49199921  0.83625076  0.86118772    -0.20200
F1151       F  0.54087384  0.80429992  0.87566421    -0.20500
F1152       F  0.53793362  0.86075086  0.88660404    -0.23200
C1153       C  0.44768688  0.65272183  0.91627647    -0.06000
C1154       C  0.47758079  0.67213033  0.91975966    -0.00100
C1155       C  0.49868706  0.66803940  0.95043022    -0.08700
C1156       C  0.48589333  0.65008714  0.97893574    -0.06000
C1157       C  0.45387107  0.63347691  0.97713324    -0.00100
C1158       C  0.43590955  0.63241239  0.94394719    -0.08600
C1159       C  0.40393129  0.61106787  0.93714804     0.61800
H1160       H  0.43201484  0.65577134  0.89258418     0.12500
H1161       H  0.50093316  0.64968811  0.00312776     0.12500
C1162       C  0.53370534  0.68482439  0.95442711     0.62000
F1163       F  0.39385986  0.61127886  0.90244385    -0.23100
F1164       F  0.37594263  0.62407022  0.95536991    -0.20400
F1165       F  0.41138275  0.57717309  0.94676284    -0.20100
F1166       F  0.52914729  0.71675008  0.96937444    -0.20200
F1167       F  0.54896910  0.68860807  0.92266049    -0.20500
F1168       F  0.55649994  0.66474544  0.97530193    -0.23200
C1169       C  0.50900739  0.48013999  0.20357139    -0.06000
C1170       C  0.54438870  0.48666539  0.19641859    -0.00100
C1171       C  0.55147105  0.49987303  0.16327143    -0.08700
C1172       C  0.52286954  0.50995483  0.14079419    -0.06000
C1173       C  0.48739610  0.50899887  0.15070646    -0.00100
C1174       C  0.48049765  0.49220711  0.18219418    -0.08600
C1175       C  0.44353898  0.48913923  0.19458877     0.61800
H1176       H  0.50346296  0.46779474  0.22789213     0.12500
H1177       H  0.52828228  0.52120395  0.11590342     0.12500
C1178       C  0.58861784  0.50496327  0.15210181     0.62000
F1179       F  0.42424648  0.47090251  0.17075130    -0.23100
F1180       F  0.42837963  0.52166436  0.19846582    -0.20400
F1181       F  0.44262012  0.47210675  0.22614349    -0.20100
F1182       F  0.60777352  0.47415042  0.15501354    -0.20200
F1183       F  0.60408008  0.52932595  0.17269960    -0.20500
F1184       F  0.58962665  0.51608903  0.11803938    -0.23200
C1185       C  0.35626666  0.52603239  0.48311898    -0.06000
C1186       C  0.34862051  0.49298939  0.49582259    -0.00100
C1187       C  0.32662706  0.49086582  0.52435437    -0.08700
C1188       C  0.30871654  0.52126087  0.53516326    -0.06000
C1189       C  0.31047125  0.55291910  0.51683328    -0.00100
C1190       C  0.33676078  0.55590353  0.49221063    -0.08600
C1191       C  0.34159406  0.58935647  0.47275876     0.61800
H1192       H  0.37479009  0.52771213  0.46256924     0.12500
H1193       H  0.28932359  0.51941066  0.55489339     0.12500
C1194       C  0.31977339  0.45653412  0.54115766     0.62000
F1195       F  0.37008550  0.58724628  0.45150464    -0.23100
F1196       F  0.34700196  0.61545052  0.49611043    -0.20400
F1197       F  0.31214103  0.59748740  0.45224226    -0.20100
F1198       F  0.35120442  0.44066025  0.55209559    -0.20200
F1199       F  0.30304539  0.43573317  0.51760500    -0.20500
F1200       F  0.29889081  0.46026006  0.56961856    -0.23200
C1201       C  0.49370094  0.50859467  0.33922411    -0.06000
C1202       C  0.48981395  0.47710486  0.35630948    -0.00100
C1203       C  0.51912430  0.45336830  0.35831996    -0.08700
C1204       C  0.54950775  0.46002924  0.33950340    -0.06000
C1205       C  0.55206285  0.49011606  0.31957745    -0.00100
C1206       C  0.52449149  0.51575925  0.32148501    -0.08600
C1207       C  0.52571303  0.55054112  0.30359498     0.61800
H1208       H  0.47203546  0.52740676  0.33869362     0.12500
H1209       H  0.57025987  0.44043078  0.33795645     0.12500
C1210       C  0.51829156  0.42106628  0.38047080     0.62000
F1211       F  0.51767930  0.57616907  0.32694187    -0.23100
F1212       F  0.50128293  0.55238694  0.27647481    -0.20400
F1213       F  0.55839298  0.55669158  0.29096333    -0.20100
F1214       F  0.49256148  0.40018543  0.36818930    -0.20200
F1215       F  0.51130702  0.42991651  0.41417530    -0.20500
F1216       F  0.54983245  0.40239190  0.38057855    -0.23200
C1217       C  0.33312479  0.25052151  0.51253551    -0.06000
C1218       C  0.30958927  0.23667081  0.48816876    -0.00100
C1219       C  0.30280910  0.25492232  0.45661481    -0.08700
C1220       C  0.31822955  0.28684435  0.45113010    -0.06000
C1221       C  0.34102788  0.30113869  0.47568375    -0.00100
C1222       C  0.35002685  0.28174039  0.50617937    -0.08600
C1223       C  0.37762240  0.29397974  0.53161126     0.61800
H1224       H  0.33735362  0.23718209  0.53710003     0.12500
H1225       H  0.31310080  0.30071279  0.42696655     0.12500
C1226       C  0.27755492  0.24149749  0.42949441     0.62000
F1227       F  0.38087210  0.27308629  0.56079653    -0.23100
F1228       F  0.36881768  0.32705773  0.54186110    -0.20400
F1229       F  0.40968980  0.29371278  0.51600887    -0.20100
F1230       F  0.24381030  0.24510037  0.44099317    -0.20200
F1231       F  0.28543962  0.20712555  0.42349427    -0.20500
F1232       F  0.27920367  0.25921129  0.39841194    -0.23200
C1233       C  0.29769938  0.43266568  0.34000359    -0.06000
C1234       C  0.31661547  0.46136528  0.35102616    -0.00100
C1235       C  0.29858376  0.49432595  0.34971284    -0.08700
C1236       C  0.26408902  0.49718755  0.33529448    -0.06000
C1237       C  0.24682602  0.46899967  0.32156908    -0.00100
C1238       C  0.26345309  0.43600915  0.32505230    -0.08600
C1239       C  0.24538013  0.40465480  0.31131639     0.61800
H1240       H  0.31042277  0.40737261  0.34184891     0.12500
H1241       H  0.25130525  0.52232145  0.33155572     0.12500
C1242       C  0.31543753  0.52700312  0.36199544     0.62000
F1243       F  0.26415420  0.37443825  0.31965693    -0.23100
F1244       F  0.24149952  0.40690996  0.27568620    -0.20400
F1245       F  0.21267117  0.40297122  0.32545996    -0.20100
F1246       F  0.34479831  0.53283942  0.34305484    -0.20200
F1247       F  0.32455295  0.52402497  0.39677863    -0.20500
F1248       F  0.29305052  0.55566858  0.35792363    -0.23200
C1249       C  0.43849003  0.31985236  0.25150097    -0.06000
C1250       C  0.47402969  0.32232513  0.24423663    -0.00100
C1251       C  0.49597201  0.33994756  0.26759495    -0.08700
C1252       C  0.48326441  0.34956319  0.29992308    -0.06000
C1253       C  0.44861107  0.34404511  0.30861465    -0.00100
C1254       C  0.42518833  0.33081571  0.28332914    -0.08600
C1255       C  0.38675260  0.32658729  0.29066752     0.61800
H1256       H  0.42202390  0.30607485  0.23353146     0.12500
H1257       H  0.50065579  0.36154293  0.31837607     0.12500
C1258       C  0.53333289  0.34798062  0.25965943     0.62000
F1259       F  0.36942964  0.31016146  0.26397980    -0.23100
F1260       F  0.37035609  0.35850903  0.29473094    -0.20400
F1261       F  0.38367739  0.30726638  0.32056816    -0.20100
F1262       F  0.54184618  0.33904709  0.22631675    -0.20200
F1263       F  0.55602676  0.33044300  0.28272000    -0.20500
F1264       F  0.53764434  0.38294972  0.26313485    -0.23200
C1265       C  0.50657764  0.31637460  0.53994601    -0.06000
C1266       C  0.48557253  0.31635464  0.56938127    -0.00100
C1267       C  0.45661349  0.33994513  0.57004712    -0.08700
C1268       C  0.44656408  0.35842567  0.53932253    -0.06000
C1269       C  0.46409857  0.35347099  0.50778754    -0.00100
C1270       C  0.49658682  0.33464380  0.50926629    -0.08600
C1271       C  0.51988804  0.33163200  0.47832184     0.61800
H1272       H  0.52949850  0.29911093  0.53990536     0.12500
H1273       H  0.42279245  0.37441644  0.53913461     0.12500
C1274       C  0.43523881  0.34392374  0.60225868     0.62000
F1275       F  0.55398768  0.32227113  0.48844794    -0.23100
F1276       F  0.52059163  0.36289052  0.46101391    -0.20400
F1277       F  0.50755938  0.30688279  0.45614390    -0.20100
F1278       F  0.45686360  0.35303011  0.62969273    -0.20200
F1279       F  0.41995764  0.31327555  0.61010484    -0.20500
F1280       F  0.40892166  0.36918144  0.59809732    -0.23200
C1281       C  0.48109101  0.03563040  0.34196233    -0.06000
C1282       C  0.51314208  0.01666982  0.33992286    -0.00100
C1283       C  0.51342832  0.98556096  0.32130542    -0.08700
C1284       C  0.48271619  0.97618132  0.30278792    -0.06000
C1285       C  0.45136324  0.99679382  0.30196602    -0.00100
C1286       C  0.45013456  0.02610950  0.32358425    -0.08600
C1287       C  0.41694897  0.04838553  0.32566812     0.61800
H1288       H  0.48107396  0.05938508  0.35631931     0.12500
H1289       H  0.48364791  0.95338693  0.28694944     0.12500
C1290       C  0.54651317  0.96280589  0.32055576     0.62000
F1291       F  0.42086404  0.07514100  0.34861895    -0.23100
F1292       F  0.39006437  0.02866662  0.33689441    -0.20400
F1293       F  0.40799492  0.06228893  0.29342412    -0.20100
F1294       F  0.55686379  0.95347407  0.35403030    -0.20200
F1295       F  0.57305094  0.98032398  0.30550405    -0.20500
F1296       F  0.54144999  0.93307622  0.30198191    -0.23200
C1297       C  0.69875697  0.05293350  0.30411624    -0.06000
C1298       C  0.68084349  0.03089700  0.32626910    -0.00100
C1299       C  0.69740310  0.99819805  0.33471774    -0.08700
C1300       C  0.72876252  0.98792346  0.31814787    -0.06000
C1301       C  0.74516697  0.00944009  0.29470465    -0.00100
C1302       C  0.73037126  0.04282014  0.28835259    -0.08600
C1303       C  0.74750787  0.06717351  0.26365029     0.61800
H1304       H  0.68740350  0.07831722  0.29841172     0.12500
H1305       H  0.74000203  0.96218133  0.32216589     0.12500
C1306       C  0.68233774  0.97386895  0.36073505     0.62000
F1307       F  0.73077172  0.09934544  0.26251353    -0.23100
F1308       F  0.74668402  0.05398923  0.23056515    -0.20400
F1309       F  0.78196716  0.07111803  0.27428142    -0.20100
F1310       F  0.64873184  0.96577222  0.35038454    -0.20200
F1311       F  0.68196732  0.98938318  0.39272021    -0.20500
F1312       F  0.70210014  0.94342249  0.36429007    -0.23200
C1313       C  0.63628086  0.19002259  0.48696882    -0.06000
C1314       C  0.64781518  0.16862433  0.46010934    -0.00100
C1315       C  0.67705189  0.17821214  0.44123200    -0.08700
C1316       C  0.69561754  0.20732895  0.45174753    -0.06000
C1317       C  0.68531648  0.22775545  0.47989512    -0.00100
C1318       C  0.65452007  0.21947100  0.49717627    -0.08600
C1319       C  0.64173861  0.24106968  0.52699499     0.61800
H1320       H  0.61311178  0.18300967  0.50045397     0.12500
H1321       H  0.71948599  0.21347026  0.43901086     0.12500
C1322       C  0.68876866  0.15725582  0.41056988     0.62000
F1323       F  0.61024626  0.23004724  0.53904121    -0.23100
F1324       F  0.63683342  0.27494339  0.51618813    -0.20400
F1325       F  0.66622783  0.23922757  0.55404264    -0.20100
F1326       F  0.66178240  0.15656562  0.38601105    -0.20200
F1327       F  0.69775556  0.12398118  0.42126059    -0.20500
F1328       F  0.71742889  0.17097358  0.39518530    -0.23200
C1329       C  0.49463349  0.20756704  0.28553046    -0.06000
C1330       C  0.51823756  0.20863505  0.25806744    -0.00100
C1331       C  0.55105725  0.19085340  0.26234605    -0.08700
C1332       C  0.55854159  0.17191795  0.29337566    -0.06000
C1333       C  0.53513321  0.17165882  0.32095840    -0.00100
C1334       C  0.50268326  0.18984659  0.31695097    -0.08600
C1335       C  0.47673322  0.19033530  0.34584120     0.61800
H1336       H  0.46994079  0.22204009  0.28258757     0.12500
H1337       H  0.58295069  0.15699270  0.29641154     0.12500
C1338       C  0.57833484  0.19283488  0.23485283     0.62000
F1339       F  0.44698464  0.21040313  0.33737999    -0.23100
F1340       F  0.49221933  0.20364936  0.37530228    -0.20400
F1341       F  0.46668303  0.15725707  0.35279038    -0.20100
F1342       F  0.58761966  0.22658876  0.23052410    -0.20200
F1343       F  0.56483388  0.18088282  0.20387596    -0.20500
F1344       F  0.60831293  0.17322982  0.24367956    -0.23200
C1345       C  0.54653904  0.15322622  0.54452828    -0.06000
C1346       C  0.52816083  0.15240485  0.51197090    -0.00100
C1347       C  0.49574793  0.17138866  0.50901474    -0.08700
C1348       C  0.48472406  0.19202018  0.53723626    -0.06000
C1349       C  0.50428496  0.19402008  0.56886561    -0.00100
C1350       C  0.53519523  0.17319603  0.57277080    -0.08600
C1351       C  0.55708484  0.17318783  0.60618096     0.61800
H1352       H  0.57108618  0.13870358  0.54778383     0.12500
H1353       H  0.46113733  0.20819996  0.53420798     0.12500
C1354       C  0.47282182  0.17007929  0.47644936     0.62000
F1355       F  0.58620303  0.15104163  0.60498558    -0.23100
F1356       F  0.53706164  0.16271685  0.63328456    -0.20400
F1357       F  0.56857273  0.20588597  0.61251465    -0.20100
F1358       F  0.46612591  0.13623863  0.46883342    -0.20200
F1359       F  0.48953435  0.18490910  0.44916596    -0.20500
F1360       F  0.44098825  0.18760752  0.48013844    -0.23200
C1361       C  0.64696321  0.94669184  0.44571309    -0.06000
C1362       C  0.64418862  0.97481790  0.46844894    -0.00100
C1363       C  0.65824008  0.97032148  0.50275196    -0.08700
C1364       C  0.67890438  0.94039781  0.51099118    -0.06000
C1365       C  0.68568890  0.91460381  0.48661543    -0.00100
C1366       C  0.66780925  0.91676847  0.45409326    -0.08600
C1367       C  0.67241484  0.88852399  0.42771547     0.61800
H1368       H  0.63446281  0.94910409  0.42030175     0.12500
H1369       H  0.69235618  0.93817432  0.53601645     0.12500
C1370       C  0.65246247  0.99698077  0.53067555     0.62000
F1371       F  0.65222617  0.89512479  0.39792050    -0.23100
F1372       F  0.66243390  0.85768642  0.44172586    -0.20400
F1373       F  0.70710954  0.88544547  0.41867204    -0.20100
F1374       F  0.61748445  0.00747476  0.53094564    -0.20200
F1375       F  0.67271853  0.02500966  0.52470230    -0.20500
F1376       F  0.66159447  0.98387932  0.56326205    -0.23200
C1377       C  0.19655532  0.51319456  0.49463116    -0.06000
C1378       C  0.18699358  0.54805667  0.50135786    -0.00100
C1379       C  0.15232259  0.55560364  0.51114989    -0.08700
C1380       C  0.13178729  0.52801912  0.52145840    -0.06000
C1381       C  0.14463268  0.49328557  0.52176212    -0.00100
C1382       C  0.17622938  0.48560641  0.50494805    -0.08600
C1383       C  0.18954053  0.44886070  0.49946322     0.61800
H1384       H  0.22187157  0.50740245  0.48382232     0.12500
H1385       H  0.10618409  0.53376677  0.53166719     0.12500
C1386       C  0.13724963  0.59216141  0.51137292     0.62000
F1387       F  0.21984958  0.44744785  0.48072710    -0.23100
F1388       F  0.16444538  0.43113670  0.48120790    -0.20400
F1389       F  0.19680294  0.43273945  0.53103793    -0.20100
F1390       F  0.10160921  0.59315537  0.51689067    -0.20200
F1391       F  0.14233890  0.60770016  0.47966476    -0.20500
F1392       F  0.15343284  0.61057886  0.53725680    -0.23200
C1393       C  0.05562009  0.31815207  0.71412510    -0.06000
C1394       C  0.02989344  0.32561033  0.68807794    -0.00100
C1395       C  0.99413806  0.32473433  0.69680196    -0.08700
C1396       C  0.98574231  0.31445646  0.73068348    -0.06000
C1397       C  0.01155800  0.30372683  0.75574864    -0.00100
C1398       C  0.04711018  0.30779539  0.74783186    -0.08600
C1399       C  0.07714142  0.29987913  0.77338286     0.61800
H1400       H  0.08297464  0.32000962  0.70795178     0.12500
H1401       H  0.95863480  0.31077862  0.73670124     0.12500
C1402       C  0.96494628  0.33129646  0.66976595     0.62000
F1403       F  0.09903254  0.32740043  0.77436744    -0.23100
F1404       F  0.09593176  0.27097877  0.76286636    -0.20400
F1405       F  0.06600233  0.29434935  0.80654021    -0.20100
F1406       F  0.97002615  0.30966701  0.64203807    -0.20200
F1407       F  0.96460008  0.36510303  0.65843401    -0.20500
F1408       F  0.93233487  0.32526998  0.68270652    -0.23200
C1409       C  0.03979919  0.34106448  0.49187087    -0.06000
C1410       C  0.01560949  0.34084890  0.51855135    -0.00100
C1411       C  0.98176051  0.32899929  0.51151062    -0.08700
C1412       C  0.97461275  0.31364536  0.47924279    -0.06000
C1413       C  0.00054807  0.30936448  0.45427875    -0.00100
C1414       C  0.03284785  0.32536438  0.45974965    -0.08600
C1415       C  0.06071291  0.32356868  0.43265656     0.61800
H1416       H  0.06529923  0.35128498  0.49732114     0.12500
H1417       H  0.94999478  0.30123458  0.47492014     0.12500
C1418       C  0.95408779  0.33128999  0.53868385     0.62000
F1419       F  0.08970651  0.34189420  0.44230115    -0.23100
F1420       F  0.04698576  0.33735369  0.40184106    -0.20400
F1421       F  0.07166742  0.28976688  0.42754457    -0.20100
F1422       F  0.94944983  0.36512230  0.54879825    -0.20200
F1423       F  0.96457669  0.31129372  0.56713854    -0.20500
F1424       F  0.92219945  0.32008152  0.52629731    -0.23200
C1425       C  0.19867334  0.46817226  0.63751329    -0.06000
C1426       C  0.17595554  0.44367719  0.65017096    -0.00100
C1427       C  0.18421757  0.42719691  0.68224803    -0.08700
C1428       C  0.21432175  0.43684098  0.70132008    -0.06000
C1429       C  0.23624050  0.46260554  0.68956373    -0.00100
C1430       C  0.22845744  0.47832994  0.65689224    -0.08600
C1431       C  0.25021397  0.50716749  0.64360014     0.61800
H1432       H  0.19197201  0.48042684  0.61279779     0.12500
H1433       H  0.22001628  0.42554249  0.72667158     0.12500
C1434       C  0.16080207  0.40018345  0.69649357     0.62000
F1435       F  0.23828608  0.51904593  0.61133262    -0.23100
F1436       F  0.28460504  0.49551069  0.64087249    -0.20400
F1437       F  0.24879658  0.53445407  0.66624567    -0.20100
F1438       F  0.15863560  0.37335606  0.67346169    -0.20200
F1439       F  0.12763313  0.41445703  0.70119028    -0.20500
F1440       F  0.17352067  0.38693711  0.72796795    -0.23200
C1441       C  0.15164474  0.28211135  0.51632721    -0.06000
C1442       C  0.16235564  0.30499563  0.54233391    -0.00100
C1443       C  0.19031667  0.29447016  0.56525845    -0.08700
C1444       C  0.20703944  0.26189075  0.56074072    -0.06000
C1445       C  0.19737280  0.23957582  0.53379178    -0.00100
C1446       C  0.16882817  0.24979003  0.51141713    -0.08600
C1447       C  0.15683234  0.22684498  0.48222724     0.61800
H1448       H  0.12927337  0.28981912  0.49981923     0.12500
H1449       H  0.22962558  0.25436622  0.57703481     0.12500
C1450       C  0.20230511  0.31739727  0.59449843     0.62000
F1451       F  0.12875491  0.24164260  0.46332890    -0.23100
F1452       F  0.14667312  0.19592417  0.49584149    -0.20400
F1453       F  0.18369859  0.22058648  0.45978240    -0.20100
F1454       F  0.17483475  0.32447728  0.61612052    -0.20200
F1455       F  0.21382534  0.34786530  0.58098826    -0.20500
F1456       F  0.22953114  0.30207927  0.61419474    -0.23200
C1457       C  0.96558982  0.44532789  0.71845236    -0.06000
C1458       C  0.93323419  0.46194847  0.70895569    -0.00100
C1459       C  0.92683524  0.47200373  0.67396910    -0.08700
C1460       C  0.95373673  0.46603663  0.65016100    -0.06000
C1461       C  0.98665021  0.45152716  0.66071570    -0.00100
C1462       C  0.99245411  0.44004261  0.69523713    -0.08600
C1463       C  0.02677395  0.42353747  0.70956085     0.61800
H1464       H  0.97054518  0.43705803  0.74506239     0.12500
H1465       H  0.94972763  0.47368335  0.62328915     0.12500
C1466       C  0.89273488  0.49013178  0.66213947     0.62000
F1467       F  0.01997421  0.39678983  0.73194560    -0.23100
F1468       F  0.04499289  0.44791544  0.72770440    -0.20400
F1469       F  0.04798252  0.41012941  0.68435391    -0.20100
F1470       F  0.88778251  0.52016186  0.68051050    -0.20200
F1471       F  0.86519679  0.46888300  0.66755323    -0.20500
F1472       F  0.89252656  0.49862086  0.62728586    -0.23200
C1473       C  0.14982319  0.01193367  0.45872897    -0.06000
C1474       C  0.15285387  0.98616516  0.48452609    -0.00100
C1475       C  0.16897788  0.99420034  0.51674514    -0.08700
C1476       C  0.18461413  0.02651036  0.52059155    -0.06000
C1477       C  0.18406077  0.05136874  0.49366217    -0.00100
C1478       C  0.16396129  0.04468153  0.46325284    -0.08600
C1479       C  0.15792741  0.07081570  0.43429819     0.61800
H1480       H  0.13629873  0.00636209  0.43449672     0.12500
H1481       H  0.20024814  0.03140738  0.54370922     0.12500
C1482       C  0.17154696  0.96797678  0.54608276     0.62000
F1483       F  0.12266013  0.07297541  0.42501386    -0.23100
F1484       F  0.17661370  0.06050852  0.40596329    -0.20400
F1485       F  0.16781530  0.10324704  0.44386837    -0.20100
F1486       F  0.19118867  0.97942484  0.57400481    -0.20200
F1487       F  0.18717563  0.93761340  0.53484665    -0.20500
F1488       F  0.13837701  0.96160432  0.55728110    -0.23200
C1489       C  0.03147243  0.84825154  0.53629360    -0.06000
C1490       C  0.01759593  0.84173012  0.50276217    -0.00100
C1491       C  0.98969002  0.81915531  0.49955778    -0.08700
C1492       C  0.98026551  0.80037303  0.52918449    -0.06000
C1493       C  0.99894232  0.80230202  0.56124472    -0.00100
C1494       C  0.02387616  0.82796124  0.56531298    -0.08600
C1495       C  0.04494468  0.83172337  0.59890607     0.61800
H1496       H  0.05153503  0.86705116  0.53886927     0.12500
H1497       H  0.96062850  0.78114432  0.52655047     0.12500
C1498       C  0.97176408  0.81309372  0.46484126     0.62000
F1499       F  0.06389224  0.80147421  0.60659602    -0.23100
F1500       F  0.02258361  0.83923633  0.62547315    -0.20400
F1501       F  0.06843588  0.85785783  0.59695337    -0.20100
F1502       F  0.99546890  0.79844503  0.44246408    -0.20200
F1503       F  0.95868907  0.84409482  0.45111392    -0.20500
F1504       F  0.94414824  0.79132416  0.46768257    -0.23200
C1505       C  0.00423897  0.84194706  0.28941384    -0.06000
C1506       C  0.02585088  0.82677433  0.31614506    -0.00100
C1507       C  0.03525392  0.79134952  0.31439876    -0.08700
C1508       C  0.02373295  0.77268492  0.28550773    -0.06000
C1509       C  0.00174238  0.78760697  0.25909991    -0.00100
C1510       C  0.99112065  0.82256241  0.26143094    -0.08600
C1511       C  0.96510068  0.83860363  0.23512403     0.61800
H1512       H  0.99756685  0.86920523  0.29074445     0.12500
H1513       H  0.03049027  0.74544934  0.28408483     0.12500
C1514       C  0.05702603  0.77316323  0.34306701     0.62000
F1515       F  0.95608922  0.87219010  0.24320064    -0.23100
F1516       F  0.93477685  0.82026586  0.23420366    -0.20400
F1517       F  0.97946460  0.83820156  0.20271517    -0.20100
F1518       F  0.03839620  0.77363098  0.37319122    -0.20200
F1519       F  0.08821489  0.78944128  0.34857507    -0.20500
F1520       F  0.06500083  0.73917634  0.33522407    -0.23200
C1521       C  0.16435634  0.79216419  0.44228056    -0.06000
C1522       C  0.15687083  0.81329009  0.47091433    -0.00100
C1523       C  0.15712881  0.79684697  0.50431235    -0.08700
C1524       C  0.16836150  0.76176972  0.50764101    -0.06000
C1525       C  0.17963373  0.74220601  0.47950077    -0.00100
C1526       C  0.17530906  0.75705564  0.44605351    -0.08600
C1527       C  0.18286361  0.73547287  0.41449970     0.61800
H1528       H  0.16224069  0.80346198  0.41659176     0.12500
H1529       H  0.17214591  0.75017147  0.53311954     0.12500
C1530       C  0.14686820  0.81571758  0.53697883     0.62000
F1531       F  0.17628019  0.75385623  0.38402517    -0.23100
F1532       F  0.16166479  0.70743389  0.41439563    -0.20400
F1533       F  0.21751707  0.72389530  0.41520228    -0.20100
F1534       F  0.11247025  0.82765740  0.53384428    -0.20200
F1535       F  0.16852561  0.84289433  0.54261273    -0.20500
F1536       F  0.14958714  0.79459240  0.56605081    -0.23200
C1537       C  0.27612128  0.97249734  0.65046901    -0.06000
C1538       C  0.30266931  0.94762221  0.65999591    -0.00100
C1539       C  0.29638499  0.92490862  0.68789393    -0.08700
C1540       C  0.26517575  0.92954704  0.70648373    -0.06000
C1541       C  0.23975957  0.95583569  0.69826555    -0.00100
C1542       C  0.24508836  0.97718169  0.66923875    -0.08600
C1543       C  0.21885233  0.00606928  0.65938888     0.61800
H1544       H  0.28028853  0.98903799  0.62839898     0.12500
H1545       H  0.26140137  0.91397242  0.72935008     0.12500
C1546       C  0.32220666  0.89568458  0.69793182     0.62000
F1547       F  0.22677471  0.02181383  0.62847902    -0.23100
F1548       F  0.21863675  0.03068501  0.68494723    -0.20400
F1549       F  0.18577792  0.99310836  0.65569274    -0.20100
F1550       F  0.35349598  0.90887035  0.70941232    -0.20200
F1551       F  0.32804805  0.87497719  0.66965142    -0.20500
F1552       F  0.30990888  0.87529212  0.72413318    -0.23200
C1553       C  0.32066285  0.98248736  0.47708651    -0.06000
C1554       C  0.33929353  0.97921805  0.50881043    -0.00100
C1555       C  0.34724826  0.01002171  0.52681006    -0.08700
C1556       C  0.33056339  0.04158823  0.51598199    -0.06000
C1557       C  0.30806367  0.04379378  0.48676134    -0.00100
C1558       C  0.30684134  0.01466780  0.46486078    -0.08600
C1559       C  0.29070364  0.01660020  0.42861499     0.61800
H1560       H  0.31625119  0.95964963  0.46196997     0.12500
H1561       H  0.33288472  0.06400219  0.53220832     0.12500
C1562       C  0.37223505  0.01160831  0.55787649     0.62000
F1563       F  0.31509713  0.00443181  0.40551938    -0.23100
F1564       F  0.28082976  0.04995388  0.41883104    -0.20400
F1565       F  0.26171115  0.99644984  0.42656658    -0.20100
F1566       F  0.38686686  0.98007818  0.56783671    -0.20200
F1567       F  0.35483121  0.02531721  0.58568737    -0.20500
F1568       F  0.39916649  0.03277837  0.54972839    -0.23200
C1569       C  0.43830803  0.84355338  0.44794733    -0.06000
C1570       C  0.46075900  0.84231440  0.47775344    -0.00100
C1571       C  0.49270979  0.82254415  0.47606168    -0.08700
C1572       C  0.49792260  0.80085952  0.44744804    -0.06000
C1573       C  0.47295794  0.79852252  0.42013361    -0.00100
C1574       C  0.44373753  0.82188173  0.41925165    -0.08600
C1575       C  0.41762455  0.82277960  0.38896766     0.61800
H1576       H  0.41530394  0.86057302  0.44781094     0.12500
H1577       H  0.52070984  0.78344039  0.44742093     0.12500
C1578       C  0.52123891  0.82352043  0.50417008     0.62000
F1579       F  0.40183451  0.79148043  0.38635987    -0.23100
F1580       F  0.43478661  0.82941897  0.35877490    -0.20400
F1581       F  0.39166752  0.84817604  0.39252352    -0.20100
F1582       F  0.51091565  0.80642992  0.53345164    -0.20200
F1583       F  0.52803235  0.85727500  0.51208175    -0.20500
F1584       F  0.55226758  0.80789547  0.49375342    -0.23200
C1585       C  0.41955810  0.83020911  0.69130073    -0.06000
C1586       C  0.44761673  0.83969410  0.67071695    -0.00100
C1587       C  0.48237961  0.83064236  0.68274042    -0.08700
C1588       C  0.48740275  0.81034721  0.71292747    -0.06000
C1589       C  0.45943610  0.79840509  0.73163720    -0.00100
C1590       C  0.42489919  0.80935969  0.72145139    -0.08600
C1591       C  0.39402301  0.79857253  0.74213978     0.61800
H1592       H  0.39323900  0.83837293  0.68298287     0.12500
H1593       H  0.51359428  0.80143477  0.72101724     0.12500
C1594       C  0.51452514  0.84218939  0.66428021     0.62000
F1595       F  0.36261350  0.81230735  0.72842569    -0.23100
F1596       F  0.39796580  0.80994565  0.77575061    -0.20400
F1597       F  0.39234936  0.76313279  0.74248723    -0.20100
F1598       F  0.51285388  0.87749988  0.66014290    -0.20200
F1599       F  0.51645777  0.82665487  0.63237589    -0.20500
F1600       F  0.54523247  0.83354933  0.68276191    -0.23200
C1601       C  0.31856615  0.78508117  0.55175455    -0.06000
C1602       C  0.32307943  0.80918014  0.52496182    -0.00100
C1603       C  0.31883252  0.79855913  0.49025484    -0.08700
C1604       C  0.30731587  0.76510372  0.48371176    -0.06000
C1605       C  0.29945044  0.74217025  0.51059419    -0.00100
C1606       C  0.30699507  0.75165670  0.54512818    -0.08600
C1607       C  0.30106749  0.72703830  0.57484384     0.61800
H1608       H  0.32310070  0.79309293  0.57820183     0.12500
H1609       H  0.30097720  0.75771246  0.45739536     0.12500
C1610       C  0.32434950  0.82305750  0.46037113     0.62000
F1611       F  0.31194127  0.74024656  0.60631643    -0.23100
F1612       F  0.31986062  0.69653631  0.56971339    -0.20400
F1613       F  0.26588320  0.72037746  0.57655246    -0.20100
F1614       F  0.35926516  0.83063604  0.45960610    -0.20200
F1615       F  0.30442988  0.85310674  0.46436680    -0.20500
F1616       F  0.31498263  0.80903574  0.42882994    -0.23200
C1617       C  0.05749430  0.17695729  0.26657431    -0.06000
C1618       C  0.02137137  0.18295171  0.26980378    -0.00100
C1619       C  0.99852953  0.17335010  0.24208391    -0.08700
C1620       C  0.01265039  0.16176273  0.21094013    -0.06000
C1621       C  0.04879748  0.15750355  0.20695021    -0.00100
C1622       C  0.07171779  0.16452062  0.23548880    -0.08600
C1623       C  0.11117883  0.16200446  0.23204837     0.61800
H1624       H  0.07468035  0.18550317  0.28725525     0.12500
H1625       H  0.99508638  0.15644651  0.18933364     0.12500
C1626       C  0.95893378  0.17778927  0.24319322     0.62000
F1627       F  0.12862054  0.17340583  0.26138997    -0.23100
F1628       F  0.12061304  0.18202880  0.20432136    -0.20400
F1629       F  0.12207847  0.12824650  0.22682053    -0.20100
F1630       F  0.94753665  0.20379551  0.22043445    -0.20200
F1631       F  0.94751122  0.18570029  0.27588839    -0.20500
F1632       F  0.94382745  0.14753958  0.23325382    -0.23200
C1633       C  0.00651967  0.17121122  0.01156152    -0.06000
C1634       C  0.03862479  0.15300838  0.00832346    -0.00100
C1635       C  0.05171164  0.14911397  0.97401136    -0.08700
C1636       C  0.03519985  0.16818914  0.94604689    -0.06000
C1637       C  0.00507982  0.18912095  0.95052196    -0.00100
C1638       C  0.98876859  0.18764715  0.98314722    -0.08600
C1639       C  0.95310812  0.20440700  0.98965676     0.61800
H1640       H  0.99511001  0.17307011  0.03683674     0.12500
H1641       H  0.04720059  0.16883757  0.92105238     0.12500
C1642       C  0.08355430  0.12614151  0.96642911     0.62000
F1643       F  0.93316369  0.18168761  0.00760814    -0.23100
F1644       F  0.93477889  0.21324048  0.95928532    -0.20400
F1645       F  0.95722894  0.23356121  0.00932599    -0.20100
F1646       F  0.07834914  0.09302105  0.97802193    -0.20200
F1647       F  0.11316400  0.13871549  0.98244140    -0.20500
F1648       F  0.08948571  0.12435801  0.93132589    -0.23200
C1649       C  0.25139329  0.92994775  0.31049102    -0.06000
C1650       C  0.25766899  0.96531304  0.31052078    -0.00100
C1651       C  0.23609095  0.98733382  0.33059493    -0.08700
C1652       C  0.20690652  0.97401546  0.34703521    -0.06000
C1653       C  0.19901450  0.93920533  0.34461903    -0.00100
C1654       C  0.22250224  0.91644145  0.32751133    -0.08600
C1655       C  0.21574159  0.87831603  0.32566432     0.61800
H1656       H  0.26759663  0.91338293  0.29468899     0.12500
H1657       H  0.18926972  0.99107023  0.36082899     0.12500
C1658       C  0.24212413  0.02552482  0.33214340     0.62000
F1659       F  0.24090814  0.86062013  0.30710401    -0.23100
F1660       F  0.18342288  0.87361121  0.30975339    -0.20400
F1661       F  0.21604362  0.86434250  0.35869743    -0.20100
F1662       F  0.22903110  0.04130820  0.30210824    -0.20200
F1663       F  0.27755164  0.03114441  0.33580450    -0.20500
F1664       F  0.22561043  0.04049443  0.35984739    -0.23200
C1665       C  0.22528941  0.99006905  0.18156530    -0.06000
C1666       C  0.24388418  0.01618160  0.19772360    -0.00100
C1667       C  0.22891370  0.05007303  0.19607950    -0.08700
C1668       C  0.19519303  0.05622593  0.18018044    -0.06000
C1669       C  0.17539888  0.02970972  0.16548206    -0.00100
C1670       C  0.19186992  0.99593830  0.16509363    -0.08600
C1671       C  0.17474159  0.96549710  0.14803452     0.61800
H1672       H  0.23661636  0.96417853  0.18373943     0.12500
H1673       H  0.18381869  0.08212004  0.17972643     0.12500
C1674       C  0.24855721  0.07962193  0.21156090     0.62000
F1675       F  0.19563573  0.93568358  0.15078739    -0.23100
F1676       F  0.16880648  0.97228548  0.11315786    -0.20400
F1677       F  0.14351317  0.95912634  0.16362914    -0.20100
F1678       F  0.28150563  0.08027992  0.19781736    -0.20200
F1679       F  0.25200672  0.07548039  0.24700995    -0.20500
F1680       F  0.23149443  0.11106034  0.20457548    -0.23200
C1681       C  0.14457480  0.97828928  0.01243416    -0.06000
C1682       C  0.15540101  0.01266003  0.01243549    -0.00100
C1683       C  0.18486665  0.02073908  0.99331059    -0.08700
C1684       C  0.20528809  0.99350404  0.97949408    -0.06000
C1685       C  0.19808251  0.95835974  0.98520402    -0.00100
C1686       C  0.16506410  0.95097724  0.99853311    -0.08600
C1687       C  0.15159019  0.91484559  0.99882427     0.61800
H1688       H  0.12093039  0.97255241  0.02577130     0.12500
H1689       H  0.22890430  0.99967374  0.96639428     0.12500
C1690       C  0.19612942  0.05753722  0.98958788     0.62000
F1691       F  0.11665934  0.91467000  0.00726627    -0.23100
F1692       F  0.17056958  0.89459227  0.02279623    -0.20400
F1693       F  0.15449886  0.90078879  0.96625408    -0.20100
F1694       F  0.20392879  0.07080551  0.02183222    -0.20200
F1695       F  0.16933242  0.07731120  0.97372068    -0.20500
F1696       F  0.22550252  0.05982587  0.96971357    -0.23200
C1697       C  0.14947980  0.22024475  0.01896968    -0.06000
C1698       C  0.16602408  0.19445406  0.04039205    -0.00100
C1699       C  0.20058333  0.19947414  0.05284247    -0.08700
C1700       C  0.21697099  0.23022352  0.04408065    -0.06000
C1701       C  0.20063494  0.25597055  0.02244741    -0.00100
C1702       C  0.16653418  0.25038602  0.00898590    -0.08600
C1703       C  0.14890416  0.27544155  0.98314546     0.61800
H1704       H  0.12274067  0.21655556  0.01015626     0.12500
H1705       H  0.24363866  0.23390710  0.05312311     0.12500
C1706       C  0.22000840  0.17249944  0.07546569     0.62000
F1707       F  0.11591786  0.26527774  0.97292751    -0.23100
F1708       F  0.16888202  0.27753098  0.95400016    -0.20400
F1709       F  0.14548593  0.30761865  0.99778256    -0.20100
F1710       F  0.22331604  0.14208129  0.05744681    -0.20200
F1711       F  0.20176638  0.16686502  0.10522205    -0.20500
F1712       F  0.25326967  0.18239614  0.08513774    -0.23200
C1713       C  0.96721522  0.99468872  0.32097542    -0.06000
C1714       C  0.93951419  0.97249096  0.31417557    -0.00100
C1715       C  0.94029799  0.94020168  0.33147141    -0.08700
C1716       C  0.97008951  0.93018323  0.35229475    -0.06000
C1717       C  0.99986356  0.95053994  0.35514307    -0.00100
C1718       C  0.99747648  0.98426793  0.34085362    -0.08600
C1719       C  0.02735697  0.00865487  0.34453747     0.61800
H1720       H  0.96654166  0.01936854  0.30768782     0.12500
H1721       H  0.97165453  0.90462595  0.36368629     0.12500
C1722       C  0.91143768  0.91506659  0.32543734     0.62000
F1723       F  0.01613169  0.04232453  0.33754533    -0.23100
F1724       F  0.05313785  0.99971823  0.32159650    -0.20400
F1725       F  0.04132567  0.00726685  0.37796255    -0.20100
F1726       F  0.91010220  0.90578030  0.29102240    -0.20200
F1727       F  0.87963265  0.93022517  0.33402381    -0.20500
F1728       F  0.91678180  0.88541054  0.34529215    -0.23200
C1729       C  0.94502812  0.03130212  0.17896916    -0.06000
C1730       C  0.94436763  0.99779306  0.19268722    -0.00100
C1731       C  0.97281009  0.97444109  0.18556017    -0.08700
C1732       C  0.00191068  0.98607677  0.16754960    -0.06000
C1733       C  0.00402304  0.02039025  0.15662317    -0.00100
C1734       C  0.97414701  0.04288265  0.16068805    -0.08600
C1735       C  0.97290106  0.07899046  0.14556750     0.61800
H1736       H  0.92352966  0.04909091  0.18459157     0.12500
H1737       H  0.02417366  0.96871610  0.16344097     0.12500
C1738       C  0.97307257  0.93737687  0.19808380     0.62000
F1739       F  0.94028932  0.09518331  0.14870697    -0.23100
F1740       F  0.98025198  0.07780293  0.11078105    -0.20400
F1741       F  0.99728562  0.09840348  0.16256783    -0.20100
F1742       F  0.94109336  0.92344995  0.19016148    -0.20200
F1743       F  0.97938763  0.93586322  0.23343572    -0.20500
F1744       F  0.99881463  0.91740276  0.18261655    -0.23200
C1745       C  0.51297187  0.98683996  0.70767007    -0.06000
C1746       C  0.54877158  0.98060790  0.70012684    -0.00100
C1747       C  0.55677136  0.97135642  0.66586330    -0.08700
C1748       C  0.52887361  0.96380164  0.64262393    -0.06000
C1749       C  0.49337420  0.96431488  0.65243242    -0.00100
C1750       C  0.48521126  0.97810402  0.68503017    -0.08600
C1751       C  0.44778024  0.98190974  0.69702501     0.61800
H1752       H  0.50651241  0.99673499  0.73281033     0.12500
H1753       H  0.53498343  0.95508550  0.61693069     0.12500
C1754       C  0.59418037  0.96822248  0.65388983     0.62000
F1755       F  0.44593970  0.99649066  0.72947237    -0.23100
F1756       F  0.43319887  0.94996309  0.69883230    -0.20400
F1757       F  0.42823795  0.00294566  0.67412889    -0.20100
F1758       F  0.59562886  0.96186744  0.61878077    -0.20200
F1759       F  0.61195219  0.94140313  0.67133816    -0.20500
F1760       F  0.61082403  0.99860354  0.66011766    -0.23200
C1761       C  0.34573982  0.94324451  0.95636391    -0.06000
C1762       C  0.32305706  0.94662977  0.98393777    -0.00100
C1763       C  0.32495742  0.97686422  0.00425502    -0.08700
C1764       C  0.34269811  0.00544027  0.99179872    -0.06000
C1765       C  0.36169044  0.00398364  0.96129355    -0.00100
C1766       C  0.36648800  0.97075326  0.94566877    -0.08600
C1767       C  0.39239525  0.96373932  0.91728644     0.61800
H1768       H  0.34501981  0.91988253  0.94140954     0.12500
H1769       H  0.34077877  0.02945738  0.00570564     0.12500
C1770       C  0.30778327  0.98040238  0.03893627     0.62000
F1771       F  0.39615208  0.92894750  0.91039853    -0.23100
F1772       F  0.42501525  0.97481019  0.92759970    -0.20400
F1773       F  0.38120704  0.98028509  0.88696082    -0.20100
F1774       F  0.29257687  0.95047538  0.04941253    -0.20200
F1775       F  0.28242502  0.00671447  0.03718440    -0.20500
F1776       F  0.33296044  0.98827292  0.06374266    -0.23200
C1777       C  0.35032331  0.22082313  0.97469685    -0.06000
C1778       C  0.33826328  0.20270140  0.94576500    -0.00100
C1779       C  0.31227444  0.21836162  0.92334167    -0.08700
C1780       C  0.29692616  0.25043403  0.93228742    -0.06000
C1781       C  0.30629265  0.26694596  0.96314537    -0.00100
C1782       C  0.33435003  0.25261869  0.98401897    -0.08600
C1783       C  0.34578787  0.27011906  0.01707975     0.61800
H1784       H  0.37139765  0.20921973  0.99069535     0.12500
H1785       H  0.27494926  0.26124492  0.91694805     0.12500
C1786       C  0.30002727  0.20051882  0.89069711     0.62000
F1787       F  0.37578552  0.25438054  0.03180618    -0.23100
F1788       F  0.31951707  0.26901216  0.04084299    -0.20400
F1789       F  0.35265600  0.30407892  0.00997414    -0.20100
F1790       F  0.28705345  0.16891424  0.89915126    -0.20200
F1791       F  0.32781978  0.19565444  0.86899787    -0.20500
F1792       F  0.27389042  0.21955709  0.87285318    -0.23200
C1793       C  0.45643398  0.15423311  0.02528569    -0.06000
C1794       C  0.48087523  0.15755152  0.99893924    -0.00100
C1795       C  0.51092552  0.17674620  0.00551172    -0.08700
C1796       C  0.51502924  0.19291344  0.03781379    -0.06000
C1797       C  0.48926982  0.19207985  0.06311870    -0.00100
C1798       C  0.46003578  0.17143163  0.05725236    -0.08600
C1799       C  0.43201387  0.16922790  0.08407649     0.61800
H1800       H  0.43359135  0.13928390  0.01999175     0.12500
H1801       H  0.53678278  0.20955456  0.04218116     0.12500
C1802       C  0.53708313  0.18229813  0.97746349     0.62000
F1803       F  0.40664682  0.14637575  0.07457569    -0.23100
F1804       F  0.41577843  0.20120699  0.08840532    -0.20400
F1805       F  0.44724332  0.15815241  0.11531401    -0.20100
F1806       F  0.51990569  0.19522258  0.94784215    -0.20200
F1807       F  0.55399776  0.15134976  0.97004826    -0.20500
F1808       F  0.56203858  0.20539480  0.98740592    -0.23200
C1809       C  0.27223657  0.03345558  0.78891115    -0.06000
C1810       C  0.24796662  0.01257103  0.80514054    -0.00100
C1811       C  0.25504139  0.00196558  0.83978108    -0.08700
C1812       C  0.28690163  0.01123126  0.85625917    -0.06000
C1813       C  0.31154844  0.03145476  0.83956713    -0.00100
C1814       C  0.30338098  0.04364495  0.80563785    -0.08600
C1815       C  0.32646248  0.06893491  0.78789476     0.61800
H1816       H  0.26668735  0.04141641  0.76232584     0.12500
H1817       H  0.29231748  0.00377390  0.88300823     0.12500
C1818       C  0.22879275  0.98162706  0.85928049     0.62000
F1819       F  0.31386845  0.07769154  0.75492987    -0.23100
F1820       F  0.35991938  0.05467303  0.78518939    -0.20400
F1821       F  0.32781944  0.09876886  0.80699062    -0.20100
F1822       F  0.22329843  0.95077498  0.84293703    -0.20200
F1823       F  0.19743372  0.00047244  0.86017952    -0.20500
F1824       F  0.24010278  0.97455857  0.89304828    -0.23200
C1825       C  0.49855431  0.98450320  0.84173630    -0.06000
C1826       C  0.50508937  0.01468166  0.85977625    -0.00100
C1827       C  0.54083951  0.02319666  0.86604583    -0.08700
C1828       C  0.56721823  0.00709871  0.84652551    -0.06000
C1829       C  0.55945130  0.98064916  0.82377550    -0.00100
C1830       C  0.52577510  0.96628018  0.82517895    -0.08600
C1831       C  0.51731768  0.93254203  0.80829602     0.61800
H1832       H  0.47196261  0.97596298  0.83905536     0.12500
H1833       H  0.59321947  0.01728753  0.84680555     0.12500
C1834       C  0.55171891  0.04997296  0.89208734     0.62000
F1835       F  0.50311368  0.91118384  0.83254924    -0.23100
F1836       F  0.54678825  0.91572572  0.79578361    -0.20400
F1837       F  0.49316493  0.93839625  0.78137072    -0.20100
F1838       F  0.53055328  0.04928538  0.92045612    -0.20200
F1839       F  0.54972530  0.08234606  0.87691560    -0.20500
F1840       F  0.58584863  0.04332243  0.90402117    -0.23200
C1841       C  0.50289719  0.16858066  0.81969569    -0.06000
C1842       C  0.46773816  0.16332807  0.82797363    -0.00100
C1843       C  0.44173677  0.17021421  0.80108393    -0.08700
C1844       C  0.45142162  0.18590773  0.76955016    -0.06000
C1845       C  0.48620787  0.19328259  0.76272123    -0.00100
C1846       C  0.51249570  0.18226158  0.78746047    -0.08600
C1847       C  0.55120646  0.18540593  0.78114500     0.61800
H1848       H  0.52353939  0.16198472  0.83867084     0.12500
H1849       H  0.43139195  0.19476128  0.75081257     0.12500
C1850       C  0.40381302  0.16122105  0.80502360     0.62000
F1851       F  0.56852132  0.15413404  0.78823183    -0.23100
F1852       F  0.56476527  0.21000205  0.80276252    -0.20400
F1853       F  0.55755069  0.19428748  0.74722943    -0.20100
F1854       F  0.38896644  0.18103794  0.83058077    -0.20200
F1855       F  0.40206682  0.12669384  0.81336039    -0.20500
F1856       F  0.38415777  0.16709723  0.77474821    -0.23200
C1857       C  0.64919608  0.26427877  0.02041731    -0.06000
C1858       C  0.65577258  0.23659272  0.99793312    -0.00100
C1859       C  0.64036038  0.23806815  0.96431753    -0.08700
C1860       C  0.62388657  0.26926531  0.95249497    -0.06000
C1861       C  0.62250035  0.29883828  0.97331033    -0.00100
C1862       C  0.63258498  0.29543556  0.00875451    -0.08600
C1863       C  0.62623809  0.32441053  0.03412203     0.61800
H1864       H  0.66042605  0.26260158  0.04646414     0.12500
H1865       H  0.61425321  0.27142144  0.92592277     0.12500
C1866       C  0.64367283  0.20769150  0.94030887     0.62000
F1867       F  0.63172330  0.31329454  0.06803601    -0.23100
F1868       F  0.59195743  0.33698423  0.03052617    -0.20400
F1869       F  0.64871783  0.35066753  0.02808856    -0.20100
F1870       F  0.63175592  0.17868995  0.95648324    -0.20200
F1871       F  0.67833047  0.20199838  0.93202820    -0.20500
F1872       F  0.62412655  0.21311688  0.90991929    -0.23200
C1873       C  0.50067106  0.36181776  0.02737472    -0.06000
C1874       C  0.48415503  0.35294821  0.99579808    -0.00100
C1875       C  0.46069957  0.32586583  0.99543455    -0.08700
C1876       C  0.45497735  0.30809320  0.02652369    -0.06000
C1877       C  0.47476198  0.31382912  0.05726102    -0.00100
C1878       C  0.49680214  0.34234800  0.05817784    -0.08600
C1879       C  0.51754395  0.35100258  0.09075172     0.61800
H1880       H  0.51871132  0.38261205  0.02709917     0.12500
H1881       H  0.43784084  0.28656584  0.02596976     0.12500
C1882       C  0.44458251  0.31360373  0.96163675     0.62000
F1883       F  0.53696868  0.37994069  0.08625295    -0.23100
F1884       F  0.54043063  0.32388447  0.10005258    -0.20400
F1885       F  0.49480187  0.35733905  0.11731160    -0.20100
F1886       F  0.47081087  0.30079455  0.94090125    -0.20200
F1887       F  0.42682993  0.34069593  0.94462378    -0.20500
F1888       F  0.42126499  0.28779466  0.96679783    -0.23200
C1889       C  0.69617849  0.47997580  0.86042315    -0.06000
C1890       C  0.67494444  0.45321706  0.84921840    -0.00100
C1891       C  0.68668180  0.43108317  0.82289070    -0.08700
C1892       C  0.71959109  0.43609990  0.80899268    -0.06000
C1893       C  0.74003860  0.46396952  0.81859114    -0.00100
C1894       C  0.72800690  0.48659778  0.84437732    -0.08600
C1895       C  0.74809883  0.51822266  0.85355349     0.61800
H1896       H  0.68736761  0.49587495  0.88154088     0.12500
H1897       H  0.72851303  0.41977704  0.78821689     0.12500
C1898       C  0.66440370  0.40223660  0.80952460     0.62000
F1899       F  0.73300710  0.53626212  0.88031336    -0.23100
F1900       F  0.74872642  0.53991963  0.82502788    -0.20400
F1901       F  0.78207819  0.50851356  0.86361127    -0.20100
F1902       F  0.67903911  0.38598833  0.78140459    -0.20200
F1903       F  0.63162721  0.41543027  0.79913846    -0.20500
F1904       F  0.66084559  0.37793998  0.83538313    -0.23200
C1905       C  0.46715427  0.52048287  0.79122985    -0.06000
C1906       C  0.43248935  0.51100341  0.79783517    -0.00100
C1907       C  0.42494557  0.50007096  0.83173833    -0.08700
C1908       C  0.45322713  0.49280785  0.85520991    -0.06000
C1909       C  0.48830393  0.49430343  0.84516881    -0.00100
C1910       C  0.49549523  0.51131661  0.81403199    -0.08600
C1911       C  0.53283114  0.51686641  0.80367827     0.61800
H1912       H  0.47257669  0.53124677  0.76610267     0.12500
H1913       H  0.44827742  0.48100495  0.87999938     0.12500
C1914       C  0.38807343  0.49275356  0.84234267     0.62000
F1915       F  0.53404924  0.53557554  0.77311900    -0.23100
F1916       F  0.55026835  0.48551674  0.79913376    -0.20400
F1917       F  0.54998663  0.53480306  0.82935234    -0.20100
F1918       F  0.37612110  0.46461467  0.82459928    -0.20200
F1919       F  0.36615487  0.52118029  0.83516594    -0.20500
F1920       F  0.38664866  0.48560645  0.87740624    -0.23200
C1921       C  0.53996764  0.33754996  0.80947945    -0.06000
C1922       C  0.51004030  0.34525684  0.82908125    -0.00100
C1923       C  0.47656268  0.34057843  0.81249718    -0.08700
C1924       C  0.47486977  0.32396331  0.78001180    -0.06000
C1925       C  0.50486643  0.31358802  0.76218270    -0.00100
C1926       C  0.53781453  0.32256938  0.77618643    -0.08600
C1927       C  0.57053923  0.31607240  0.75570944     0.61800
H1928       H  0.56545012  0.34304596  0.82054627     0.12500
H1929       H  0.44980210  0.31682937  0.76908216     0.12500
C1930       C  0.44238253  0.35229144  0.82858418     0.62000
F1931       F  0.59985028  0.32884047  0.77222988    -0.23100
F1932       F  0.56627908  0.33222029  0.72373950    -0.20400
F1933       F  0.57633134  0.28117562  0.75096429    -0.20100
F1934       F  0.44185059  0.38755035  0.83300519    -0.20200
F1935       F  0.43888567  0.33588871  0.86010381    -0.20500
F1936       F  0.41351508  0.34494137  0.80785516    -0.23200
C1937       C  0.63983313  0.55771647  0.96217482    -0.06000
C1938       C  0.66177505  0.55395364  0.99171289    -0.00100
C1939       C  0.65990460  0.52312030  0.01163833    -0.08700
C1940       C  0.64174111  0.49506959  0.99813675    -0.06000
C1941       C  0.62297850  0.49707543  0.96634233    -0.00100
C1942       C  0.61959884  0.53028350  0.94954566    -0.08600
C1943       C  0.59637093  0.53706131  0.91742980     0.61800
H1944       H  0.64102710  0.58132337  0.94726332     0.12500
H1945       H  0.64327785  0.47087079  0.01233467     0.12500
C1946       C  0.67826937  0.51797874  0.04672989     0.62000
F1947       F  0.59417957  0.57162613  0.90841319    -0.23100
F1948       F  0.56272480  0.52711033  0.92353427    -0.20400
F1949       F  0.60970217  0.51925725  0.88968291    -0.20100
F1950       F  0.69143125  0.54807410  0.05961251    -0.20200
F1951       F  0.70543652  0.49372629  0.04416955    -0.20500
F1952       F  0.65470605  0.50623089  0.07018024    -0.23200
C1953       C  0.97966350  0.33166292  0.00411866    -0.06000
C1954       C  0.94503063  0.34520619  0.00212121    -0.00100
C1955       C  0.92718532  0.34492951  0.96895580    -0.08700
C1956       C  0.94257310  0.32653586  0.94127335    -0.06000
C1957       C  0.97570188  0.31002423  0.94487248    -0.00100
C1958       C  0.99568576  0.31562975  0.97575264    -0.08600
C1959       C  0.03359185  0.30311302  0.98043001     0.61800
H1960       H  0.99428452  0.33278331  0.02850126     0.12500
H1961       H  0.92756907  0.32247719  0.91758236     0.12500
C1962       C  0.89142389  0.36242407  0.96269487     0.62000
F1963       F  0.05309620  0.32899861  0.99459324    -0.23100
F1964       F  0.04825880  0.29414606  0.94933695    -0.20400
F1965       F  0.03569986  0.27492724  0.00256645    -0.20100
F1966       F  0.89311726  0.39688974  0.97058188    -0.20200
F1967       F  0.86708232  0.34726543  0.98290200    -0.20500
F1968       F  0.87992838  0.36020279  0.92852885    -0.23200
C1969       C  0.97978713  0.31926217  0.20737667    -0.06000
C1970       C  0.94468023  0.31465490  0.19776031    -0.00100
C1971       C  0.92225291  0.29988923  0.22198154    -0.08700
C1972       C  0.93578026  0.29081094  0.25522283    -0.06000
C1973       C  0.97103344  0.29498791  0.26480118    -0.00100
C1974       C  0.99314783  0.31030251  0.24067240    -0.08600
C1975       C  0.03154266  0.31614351  0.24848919     0.61800
H1976       H  0.99670510  0.33117570  0.18908736     0.12500
H1977       H  0.91942652  0.27705547  0.27270809     0.12500
C1978       C  0.88480866  0.29033245  0.21341357     0.62000
F1979       F  0.04103227  0.30953286  0.28277322    -0.23100
F1980       F  0.03853021  0.35006116  0.24128973    -0.20400
F1981       F  0.05178257  0.29502714  0.22784374    -0.20100
F1982       F  0.87308920  0.30042549  0.18059645    -0.20200
F1983       F  0.86263300  0.30524577  0.23706795    -0.20500
F1984       F  0.88271921  0.25496706  0.21573318    -0.23200
C1985       C  0.00337844  0.48306127  0.15993678    -0.06000
C1986       C  0.98093250  0.45824070  0.17312504    -0.00100
C1987       C  0.99217116  0.44019014  0.20392923    -0.08700
C1988       C  0.02646927  0.44375484  0.21687617    -0.06000
C1989       C  0.04744492  0.47042287  0.20606961    -0.00100
C1990       C  0.03564730  0.49069120  0.17708007    -0.08600
C1991       C  0.05687791  0.52025283  0.16474509     0.61800
H1992       H  0.99506004  0.49719669  0.13670358     0.12500
H1993       H  0.03540685  0.42866722  0.23938721     0.12500
C1994       C  0.96733533  0.42057015  0.22613666     0.62000
F1995       F  0.04033945  0.53783243  0.13718221    -0.23100
F1996       F  0.08911711  0.50765861  0.15427054    -0.20400
F1997       F  0.06184446  0.54330767  0.19127406    -0.20100
F1998       F  0.96126148  0.38909985  0.21190553    -0.20200
F1999       F  0.93600851  0.43918562  0.22886537    -0.04500
F2000       F  0.98090014  0.41483060  0.25936357    -0.23200
C2001       C  0.82234837  0.27913168  0.01007806    -0.06000
C2002       C  0.81572271  0.30063309  0.03844684    -0.00100
C2003       C  0.78977594  0.29146982  0.06188626    -0.08700
C2004       C  0.77094196  0.26166397  0.05577851    -0.06000
C2005       C  0.77702552  0.24044502  0.02720568    -0.00100
C2006       C  0.80284106  0.24952295  0.00363371    -0.08600
C2007       C  0.80941538  0.22811864  0.97180363     0.61800
H2008       H  0.84350742  0.28531431  0.99338307     0.12500
H2009       H  0.75027493  0.25506295  0.07294902     0.12500
C2010       C  0.78300909  0.31233369  0.09416066     0.62000
F2011       F  0.83495527  0.24171632  0.95163816    -0.23100
F2012       F  0.77896597  0.22669840  0.95173449    -0.20400
F2013       F  0.82033218  0.19514779  0.98185948    -0.20100
F2014       F  0.77385319  0.34599468  0.08500350    -0.20200
F2015       F  0.81286684  0.31161797  0.11518516    -0.20500
F2016       F  0.75620005  0.29946574  0.11315285    -0.23200
C2017       C  0.83258411  0.52140978  0.04318962    -0.06000
C2018       C  0.82822781  0.48851276  0.02864231    -0.00100
C2019       C  0.80619944  0.48614663  0.99884637    -0.08700
C2020       C  0.78623203  0.51574145  0.98751955    -0.06000
C2021       C  0.78685673  0.54735161  0.00535075    -0.00100
C2022       C  0.81187002  0.55067868  0.03267259    -0.08600
C2023       C  0.81485702  0.58391727  0.05263037     0.61800
H2024       H  0.85073881  0.52352212  0.06501220     0.12500
H2025       H  0.76765146  0.51363106  0.96603128     0.12500
C2026       C  0.80236350  0.45240512  0.98016290     0.62000
F2027       F  0.84149941  0.58174216  0.07768785    -0.23100
F2028       F  0.78383142  0.59148069  0.06895245    -0.20400
F2029       F  0.82197827  0.61048883  0.03021797    -0.20100
F2030       F  0.78900398  0.42823271  0.00212981    -0.20200
F2031       F  0.83473496  0.44077206  0.96921004    -0.20500
F2032       F  0.78011086  0.45588634  0.95135340    -0.23200
C2033       C  0.79210354  0.46931180  0.16526289    -0.06000
C2034       C  0.81186551  0.43846603  0.17223794    -0.00100
C2035       C  0.79586745  0.41263359  0.19228523    -0.08700
C2036       C  0.76221000  0.41964440  0.20587013    -0.06000
C2037       C  0.74354345  0.45123744  0.20047284    -0.00100
C2038       C  0.75858152  0.47611415  0.17902589    -0.08600
C2039       C  0.73939657  0.51037194  0.17160941     0.61800
H2040       H  0.80339480  0.48863748  0.14914944     0.12500
H2041       H  0.75119132  0.40131077  0.22334303     0.12500
C2042       C  0.81451684  0.37830616  0.20100198     0.62000
F2043       F  0.75802048  0.53124789  0.15020923    -0.23100
F2044       F  0.73385278  0.52781511  0.20207091    -0.20400
F2045       F  0.70743517  0.50458342  0.15547870    -0.20100
F2046       F  0.84698728  0.38364256  0.21632660    -0.20200
F2047       F  0.81850415  0.35944900  0.17120624    -0.20500
F2048       F  0.79594171  0.35880041  0.22372615    -0.23200
C2049       C  0.92140206  0.66754926  0.31358578    -0.06000
C2050       C  0.95084784  0.64653085  0.32317385    -0.00100
C2051       C  0.97796699  0.64203456  0.29903066    -0.08700
C2052       C  0.97514188  0.65924543  0.26674618    -0.06000
C2053       C  0.94676147  0.68170216  0.25784820    -0.00100
C2054       C  0.91903377  0.68542597  0.28142731    -0.08600
C2055       C  0.88707039  0.70845057  0.27238624     0.61800
H2056       H  0.90002975  0.66951018  0.33131221     0.12500
H2057       H  0.99669149  0.65750394  0.24919071     0.12500
C2058       C  0.01075886  0.62021424  0.30788451     0.62000
F2059       F  0.86187243  0.70665830  0.29727741    -0.23100
F2060       F  0.87235899  0.69831630  0.24119907    -0.20400
F2061       F  0.89642174  0.74231104  0.26951142    -0.20100
F2062       F  0.00330355  0.58579722  0.30635484    -0.20200
F2063       F  0.02304484  0.62792487  0.34078539    -0.20500
F2064       F  0.03722528  0.62612623  0.28513472    -0.23200
C2065       C  0.01394208  0.68102834  0.53094544    -0.06000
C2066       C  0.00236797  0.67866279  0.56529883    -0.00100
C2067       C  0.98476800  0.64898059  0.57507572    -0.08700
C2068       C  0.97449939  0.62607454  0.54897996    -0.06000
C2069       C  0.98030861  0.63200808  0.51332072    -0.00100
C2070       C  0.00329797  0.65830857  0.50470994    -0.08600
C2071       C  0.01587767  0.66343329  0.46824207     0.61800
H2072       H  0.02941733  0.70266923  0.52404868     0.12500
H2073       H  0.95955315  0.60429972  0.55642549     0.12500
C2074       C  0.97517738  0.64209743  0.61229812     0.62000
F2075       F  0.04211179  0.68697766  0.46711295    -0.23100
F2076       F  0.98839718  0.67548098  0.44686397    -0.20400
F2077       F  0.02937043  0.63258533  0.45588815    -0.20100
F2078       F  0.95154492  0.66725921  0.62308369    -0.20200
F2079       F  0.00506210  0.64180295  0.63337403    -0.20500
F2080       F  0.95997900  0.61061480  0.61621730    -0.23200
C2081       C  0.01241505  0.52652402  0.36119124    -0.06000
C2082       C  0.98532108  0.50287337  0.35844654    -0.00100
C2083       C  0.99301482  0.47062758  0.34345996    -0.08700
C2084       C  0.02565056  0.46487413  0.32761173    -0.06000
C2085       C  0.05094439  0.49045372  0.32598961    -0.00100
C2086       C  0.04520043  0.52068439  0.34531402    -0.08600
C2087       C  0.07302211  0.54730036  0.34727342     0.61800
H2088       H  0.00680152  0.55086592  0.37357977     0.12500
H2089       H  0.03010432  0.44152588  0.31308720     0.12500
C2090       C  0.96597325  0.44316225  0.34285475     0.62000
F2091       F  0.06407332  0.57366633  0.36944848    -0.23100
F2092       F  0.07782838  0.56121548  0.31478698    -0.20400
F2093       F  0.10422882  0.53184841  0.35942202    -0.20100
F2094       F  0.93797336  0.45344602  0.32125754    -0.20200
F2095       F  0.95415947  0.43804788  0.37591618    -0.20500
F2096       F  0.97973729  0.41207318  0.33133196    -0.23200
C2097       C  0.80817117  0.44072835  0.51926108    -0.06000
C2098       C  0.80039634  0.41506381  0.49514189    -0.00100
C2099       C  0.81811241  0.41486417  0.46351625    -0.08700
C2100       C  0.84030778  0.44216348  0.45576604    -0.06000
C2101       C  0.84605404  0.46949766  0.47884752    -0.00100
C2102       C  0.83141055  0.46727066  0.51225037    -0.08600
C2103       C  0.84002592  0.49245377  0.54076904     0.61800
H2104       H  0.79465980  0.44059561  0.54349303     0.12500
H2105       H  0.85235382  0.44288877  0.43080915     0.12500
C2106       C  0.81247045  0.38653945  0.43757338     0.62000
F2107       F  0.82964444  0.48084370  0.57270640    -0.23100
F2108       F  0.82303127  0.52387986  0.53391467    -0.20400
F2109       F  0.87580448  0.49659217  0.54315706    -0.20100
F2110       F  0.77752687  0.38634810  0.42733897    -0.20200
F2111       F  0.82226402  0.35512910  0.45264953    -0.20500
F2112       F  0.83210553  0.39071247  0.40842125    -0.23200
C2113       C  0.84506508  0.68495853  0.43918737    -0.06000
C2114       C  0.85312847  0.66188182  0.46694340    -0.00100
C2115       C  0.84495427  0.67274763  0.50100319    -0.08700
C2116       C  0.82588962  0.70413369  0.50526505    -0.06000
C2117       C  0.81501152  0.72540207  0.47718546    -0.00100
C2118       C  0.82599992  0.71643414  0.44375571    -0.08600
C2119       C  0.81586496  0.73919687  0.41281640     0.61800
H2120       H  0.85249326  0.67748527  0.41344365     0.12500
H2121       H  0.81701201  0.71125445  0.53065357     0.12500
C2122       C  0.85619829  0.65182506  0.53309737     0.62000
F2123       F  0.83372091  0.72924883  0.38370189    -0.23100
F2124       F  0.82371960  0.77287054  0.41989236    -0.20400
F2125       F  0.78034489  0.73749648  0.40566581    -0.20100
F2126       F  0.89182082  0.64446675  0.53294803    -0.20200
F2127       F  0.83837037  0.62159995  0.53399758    -0.20500
F2128       F  0.84930442  0.66946294  0.56323469    -0.23200
C2129       C  0.75178968  0.53159586  0.31276942    -0.06000
C2130       C  0.74448945  0.49658161  0.31351086    -0.00100
C2131       C  0.76947662  0.47318283  0.32959750    -0.08700
C2132       C  0.80185016  0.48511251  0.34195867    -0.06000
C2133       C  0.81061496  0.51963888  0.33823691    -0.00100
C2134       C  0.78448124  0.54366315  0.32445291    -0.08600
C2135       C  0.79094253  0.58186984  0.32095862     0.61800
H2136       H  0.73304866  0.54903424  0.29945215     0.12500
H2137       H  0.82117162  0.46678974  0.35312592     0.12500
C2138       C  0.76415860  0.43483432  0.33173313     0.62000
F2139       F  0.76063283  0.60070233  0.31156685    -0.23100
F2140       F  0.81507308  0.58720684  0.29569741    -0.20400
F2141       F  0.80327262  0.59440676  0.35217721    -0.20100
F2142       F  0.78665162  0.41803996  0.30957239    -0.20200
F2143       F  0.73017275  0.42645019  0.32317609    -0.20500
F2144       F  0.77160263  0.42328001  0.36513306    -0.23200
C2145       C  0.45576310  0.50788621  0.62753584    -0.06000
C2146       C  0.49040478  0.50025161  0.63996120    -0.00100
C2147       C  0.49546891  0.47767812  0.66859520    -0.08700
C2148       C  0.46576336  0.46731996  0.68634747    -0.06000
C2149       C  0.43167518  0.48127719  0.67823442    -0.00100
C2150       C  0.42620412  0.49913254  0.64645982    -0.08600
C2151       C  0.38990490  0.51185710  0.63437256     0.61800
H2152       H  0.45209897  0.52429779  0.60482394     0.12500
H2153       H  0.46959010  0.45232722  0.71000107     0.12500
C2154       C  0.53196466  0.46795955  0.68270907     0.62000
F2155       F  0.38975459  0.52502671  0.60097929    -0.23100
F2156       F  0.37785581  0.53750507  0.65600134    -0.20400
F2157       F  0.36731953  0.48491158  0.63478296    -0.20100
F2158       F  0.54838353  0.49721635  0.69356583    -0.20200
F2159       F  0.55124158  0.45226348  0.65717228    -0.20500
F2160       F  0.53130060  0.44542162  0.71058265    -0.23200
C2161       C  0.68077481  0.73074025  0.53827845    -0.06000
C2162       C  0.69371574  0.72737892  0.50489880    -0.00100
C2163       C  0.68439511  0.69834915  0.48505953    -0.08700
C2164       C  0.66550705  0.67225588  0.50055124    -0.06000
C2165       C  0.65391419  0.67463820  0.53457536    -0.00100
C2166       C  0.66079996  0.70502195  0.55347050    -0.08600
C2167       C  0.64827743  0.71000985  0.58991947     0.61800
H2168       H  0.68822640  0.75285006  0.55319524     0.12500
H2169       H  0.65956367  0.64964665  0.48562051     0.12500
C2170       C  0.69356373  0.69341983  0.44744050     0.62000
F2171       F  0.66155499  0.73906563  0.60506006    -0.23100
F2172       F  0.65872852  0.68195046  0.61047750    -0.20400
F2173       F  0.61220784  0.71383195  0.58883563    -0.20100
F2174       F  0.71617025  0.66502496  0.44477601    -0.20200
F2175       F  0.70885974  0.72163739  0.43312313    -0.20500
F2176       F  0.66328764  0.68772987  0.42819719    -0.23200
C2177       C  0.63671320  0.45072177  0.55494833    -0.06000
C2178       C  0.63428306  0.48049645  0.53351890    -0.00100
C2179       C  0.64888088  0.47795210  0.50023443    -0.08700
C2180       C  0.66987549  0.44847308  0.49208878    -0.06000
C2181       C  0.67571908  0.42040928  0.51521140    -0.00100
C2182       C  0.65714299  0.42081344  0.54640438    -0.08600
C2183       C  0.66072023  0.39060837  0.57149229     0.61800
H2184       H  0.62459167  0.45189512  0.57982996     0.12500
H2185       H  0.68370580  0.44815984  0.46802334     0.12500
C2186       C  0.64401234  0.50663288  0.47354213     0.62000
F2187       F  0.64075438  0.39574926  0.60037805    -0.23100
F2188       F  0.69532105  0.38558623  0.58243370    -0.20400
F2189       F  0.64961376  0.36127230  0.55525220    -0.20100
F2190       F  0.66924661  0.53066844  0.47901644    -0.20200
F2191       F  0.61108509  0.52240373  0.47550548    -0.20500
F2192       F  0.64706172  0.49394585  0.44038871    -0.23200
C2193       C  0.71218526  0.53470734  0.66070673    -0.06000
C2194       C  0.68230035  0.51436467  0.65825726    -0.00100
C2195       C  0.68226212  0.48333524  0.67741622    -0.08700
C2196       C  0.71270735  0.47320613  0.69708529    -0.06000
C2197       C  0.74179416  0.49453324  0.70093366    -0.00100
C2198       C  0.74125267  0.52605200  0.68265589    -0.08600
C2199       C  0.76956064  0.55181420  0.68867709     0.61800
H2200       H  0.71183814  0.55877153  0.64636104     0.12500
H2201       H  0.71285450  0.44963472  0.71225369     0.12500
C2202       C  0.65001440  0.46193029  0.67842704     0.62000
F2203       F  0.76411645  0.58097709  0.66812913    -0.23100
F2204       F  0.80187685  0.53707710  0.68119728    -0.20400
F2205       F  0.76979257  0.56188397  0.72289496    -0.20100
F2206       F  0.64017954  0.45240789  0.64536862    -0.20200
F2207       F  0.62296094  0.48105093  0.69266417    -0.20500
F2208       F  0.65573836  0.43235938  0.69833783    -0.23200
C2209       C  0.47191708  0.64872241  0.48264351    -0.06000
C2210       C  0.50746927  0.64383852  0.49282455    -0.00100
C2211       C  0.53313870  0.65229242  0.46836102    -0.08700
C2212       C  0.52248707  0.66830293  0.43660562    -0.06000
C2213       C  0.48722490  0.67587816  0.42790509    -0.00100
C2214       C  0.46143750  0.66480202  0.45070614    -0.08600
C2215       C  0.42289560  0.67024418  0.44098117     0.61800
H2216       H  0.45228722  0.64096547  0.50044771     0.12500
H2217       H  0.54198802  0.67778649  0.41950977     0.12500
C2218       C  0.57198384  0.64627738  0.47601199     0.62000
F2219       F  0.41590103  0.65382102  0.41012365    -0.23100
F2220       F  0.41432578  0.70492969  0.43699249    -0.20400
F2221       F  0.40172788  0.65705358  0.46588724    -0.20100
F2222       F  0.57881241  0.61343590  0.48921584    -0.20200
F2223       F  0.58276732  0.67040857  0.49954430    -0.20500
F2224       F  0.59142239  0.64964263  0.44660647    -0.23200
C2225       C  0.49048847  0.64646803  0.67734825    -0.06000
C2226       C  0.52440396  0.64920996  0.66395280    -0.00100
C2227       C  0.54936575  0.66628116  0.68539199    -0.08700
C2228       C  0.53838183  0.68290526  0.71623507    -0.06000
C2229       C  0.50395561  0.68175311  0.72809964    -0.00100
C2230       C  0.48009128  0.66184121  0.70878475    -0.08600
C2231       C  0.44301099  0.65615082  0.72000712     0.61800
H2232       H  0.47125024  0.63217965  0.66293057     0.12500
H2233       H  0.55640233  0.69858710  0.73061747     0.12500
C2234       C  0.58742145  0.66771774  0.67591072     0.62000
F2235       F  0.43871519  0.62124236  0.72432586    -0.23100
F2236       F  0.41945213  0.66863555  0.69468323    -0.20400
F2237       F  0.43518267  0.67194304  0.75084426    -0.20100
F2238       F  0.58973478  0.68452179  0.64456595    -0.20200
F2239       F  0.60183673  0.63469757  0.67382161    -0.20500
F2240       F  0.60709048  0.68515121  0.70018953    -0.23200
loop_ 
_geom_bond_atom_site_label_1 
_geom_bond_atom_site_label_2 
_geom_bond_distance 
_geom_bond_site_symmetry_2 
_ccdc_geom_bond_type 
O1           Ni7   1.900       .  S
O1           C22   1.266       .  A
O2          Ni25   1.910       .  S
O2           C11   1.272       .  A
O3           Ni7   1.899       .  S
O3          Ni25   1.900       .  S
O3          Ni19   1.942       .  S
O3           H26   0.967       .  S
C4           O21   1.299       .  A
C4           O13   1.281       .  A
C4         C2194   1.494       .  S
O5          Ni24   1.954       .  S
O5           C11   1.284       .  A
O6          Ni24   1.931       .  S
O6            C8   1.275       .  A
Ni7          O10   1.939       .  S
Ni7          O12   1.937       .  S
C8           O18   1.278       .  A
C8         C2178   1.522       .  S
O9          Ni25   1.943       .  S
O9           C15   1.279       .  A
O10          C15   1.278       .  A
C11        C2165   1.502       .  S
O12          C14   1.274       .  A
O13         Ni24   1.917       .  S
C14          O20   1.281       .  A
C14        C2226   1.544       .  S
C15        C2210   1.512       .  S
H16          O17   0.966       .  S
O17         Ni25   1.891       .  S
O17         Ni19   1.901       .  S
O17         Ni24   1.886       .  S
O18         Ni19   1.960       .  S
Ni19         O23   1.966       .  S
Ni19         O21   1.959       .  S
O20         Ni25   1.975       .  S
C22          O23   1.288       .  A
C22        C2146   1.497       .  S
O27         Ni33   1.887       .  S
O27          C48   1.257       .  A
O28         Ni51   1.913       .  S
O28          C37   1.274       .  A
O29         Ni33   1.894       .  S
O29         Ni51   1.887       .  S
O29         Ni45   1.932       .  S
O29          H52   0.969       .  S
C30          O47   1.296       .  A
C30          O39   1.282       .  A
C30        C2069   1.513       .  S
O31         Ni50   1.966       .  S
O31          C37   1.284       .  A
O32         Ni50   1.933       .  S
O32          C34   1.277       .  A
Ni33         O36   1.916       .  S
Ni33         O38   1.916       .  S
C34          O44   1.275       .  A
C34        C2114   1.508       .  S
O35         Ni51   1.953       .  S
O35          C41   1.286       .  A
O36          C41   1.276       .  A
C37        C2101   1.517       .  S
O38          C40   1.266       .  A
O39         Ni50   1.917       .  S
C40          O46   1.275       .  A
C40        C2082   1.506       .  S
C41        C2133   1.503       .  S
H42          O43   0.949       .  S
O43         Ni51   1.901       .  S
O43         Ni45   1.917       .  S
O43         Ni50   1.880       .  S
O44         Ni45   1.936       .  S
Ni45         O49   1.972       .  S
Ni45         O47   1.959       .  S
O46         Ni51   1.966       .  S
C48          O49   1.286       .  A
C48        C2050   1.495       .  S
O53         Ni59   1.899       .  S
O53          C74   1.264       .  A
O54         Ni77   1.874       .  S
O54          C63   1.262       .  A
O55         Ni59   1.907       .  S
O55         Ni77   1.890       .  S
O55         Ni71   1.942       .  S
O55          H78   0.966       .  S
C56          O73   1.298       .  A
C56          O65   1.281       .  A
C56        C2002   1.483       .  S
O57         Ni76   1.970       .  S
O57          C63   1.286       .  A
O58         Ni76   1.930       .  S
O58          C60   1.279       .  A
Ni59         O62   1.944       .  S
Ni59         O64   1.935       .  S
C60          O70   1.279       .  A
C60        C1954   1.520       .  S
O61         Ni77   1.929       .  S
O61          C67   1.274       .  A
O62          C67   1.279       .  A
C63        C1970   1.477       .  S
O64          C66   1.272       .  A
O65         Ni76   1.929       .  S
C66          O72   1.268       .  A
C66        C2034   1.524       .  S
C67        C1986   1.513       .  S
H68          O69   0.963       .  S
O69         Ni77   1.878       .  S
O69         Ni71   1.893       .  S
O69         Ni76   1.883       .  S
O70         Ni71   1.961       .  S
Ni71         O75   1.970       .  S
Ni71         O73   1.949       .  S
O72         Ni77   1.943       .  S
C74          O75   1.288       .  A
C74        C2018   1.506       .  S
C79         C507   1.523   1_556  S
C79          N80   1.376   1_556  A
C79          N84   1.384       .  A
N80          C81   1.370       .  A
C81        C2021   1.501       .  S
C81          N82   1.346   1_554  A
N82          C83   1.346       .  A
C83        C1938   1.503       .  S
C83          N84   1.377       .  A
C85        C2085   1.505       .  S
C85          N86   1.376       .  A
C85          N90   1.340       .  A
N86          C87   1.386       .  A
C87         C657   1.524       .  S
C87          N88   1.381       .  A
N88          C89   1.372       .  A
C89        C1989   1.495       .  S
C89          N90   1.345       .  A
O91         Ni97   1.897       .  S
O91         C112   1.265       .  A
O92        Ni115   1.882       .  S
O92         C101   1.266       .  A
O93         Ni97   1.891       .  S
O93        Ni115   1.888       .  S
O93        Ni109   1.935       .  S
O93         H116   0.966       .  S
C94         O111   1.296       .  A
C94         O103   1.282       .  A
C94        C1890   1.472       .  S
O95        Ni114   1.971       .  S
O95         C101   1.288       .  A
O96        Ni114   1.945       .  S
O96          C98   1.281       .  A
Ni97        O100   1.939       .  S
Ni97        O102   1.931       .  S
C98         O108   1.269       .  A
C98        C1941   1.524       .  S
O99        Ni115   1.926       .  S
O99         C105   1.273       .  A
O100        C105   1.277       .  A
C101       C1861   1.494       .  S
O102        C104   1.270       .  A
O103       Ni114   1.923       .  S
C104        O110   1.277       .  A
C104       C1922   1.527       .  S
C105       C1874   1.489       .  S
H106        O107   0.966       .  S
O107       Ni115   1.879       .  S
O107       Ni109   1.890       .  S
O107       Ni114   1.879       .  S
O108       Ni109   1.931       .  S
Ni109       O113   1.955       .  S
Ni109       O111   1.943       .  S
O110       Ni115   1.954       .  S
C112        O113   1.282       .  A
C112       C1909   1.483       .  S
O117       Ni123   1.893       .  S
O117        C138   1.262       .  A
O118       Ni141   1.879       .  S
O118        C127   1.262       .  A
O119       Ni123   1.894       .  S
O119       Ni141   1.883       .  S
O119       Ni135   1.939       .  S
O119        H142   0.966       .  S
C120        O137   1.303       .  A
C120        O129   1.279       .  A
C120       C1813   1.492       .  S
O121       Ni140   1.972       .  S
O121        C127   1.288       .  A
O122       Ni140   1.950       .  S
O122        C124   1.284       .  A
Ni123       O126   1.932       .  S
Ni123       O128   1.931       .  S
C124        O134   1.269       .  A
C124       C1765   1.521       .  S
O125       Ni141   1.934       .  S
O125        C131   1.277       .  A
O126        C131   1.277       .  A
C127       C1778   1.484       .  S
O128        C130   1.271       .  A
O129       Ni140   1.917       .  S
C130        O136   1.274       .  A
C130       C1842   1.529       .  S
C131       C1794   1.494       .  S
H132        O133   0.965       .  S
O133       Ni141   1.891       .  S
O133       Ni135   1.901       .  S
O133       Ni140   1.889       .  S
O134       Ni135   1.930       .  S
Ni135       O139   1.973       .  S
Ni135       O137   1.963       .  S
O136       Ni141   1.955       .  S
C138        O139   1.289       .  A
C138       C1826   1.499       .  S
C143       C1797   1.485       .  S
C143        N144   1.372       .  A
C143        N148   1.342       .  A
N144        C145   1.378       .  A
C145        C675   1.510       .  S
C145        N146   1.380       .  A
N146        C147   1.368       .  A
C147       C1877   1.502       .  S
C147        N148   1.343       .  A
C149       C1845   1.497       .  S
C149        N150   1.377       .  A
C149        N154   1.344       .  A
N150        C151   1.383       .  A
C151        C405   1.532       .  S
C151        N152   1.383       .  A
N152        C153   1.376       .  A
C153       C1925   1.497       .  S
C153        N154   1.344       .  A
C155        C541   1.509       .  S
C155        N156   1.379       .  A
C155        N160   1.375       .  A
N156        C157   1.373       .  A
C157       C1746   1.513       .  S
C157        N158   1.346       .  A
N158        C159   1.342       .  A
C159       C1829   1.489       .  S
C159        N160   1.368       .  A
C161       C1730   1.503       .  S
C161        N162   1.346       .  A
C161        N166   1.377       .  A
N162        C163   1.347       .  A
C163       C1714   1.500       .  S
C163        N164   1.372       .  A
N164        C165   1.378       .  A
C165        C643   1.524       .  S
C165        N166   1.382       .  A
C167        C667   1.519       .  S
C167        N168   1.384   1_556  A
C167        N172   1.376       .  A
N168        C169   1.378       .  A
C169       C1701   1.499       .  S
C169        N170   1.341   1_554  A
N170        C171   1.340       .  A
C171       C1781   1.477       .  S
C171        N172   1.367       .  A
C173        C647   1.524       .  S
C173        N174   1.383       .  A
C173        N178   1.379       .  A
N174        C175   1.374       .  A
C175       C1762   1.500       .  S
C175        N176   1.342       .  A
N176        C177   1.346       .  A
C177       C1685   1.514       .  S
C177        N178   1.374       .  A
C179        C669   1.529       .  S
C179        N180   1.385   1_565  A
C179        N184   1.378       .  A
N180        C181   1.379       .  A
C181       C1666   1.504       .  S
C181        N182   1.346   1_545  A
N182        C183   1.346       .  A
C183       C1650   1.491       .  S
C183        N184   1.372       .  A
C185        C629   1.522       .  S
C185        N186   1.381       .  A
C185        N190   1.382       .  A
N186        C187   1.372       .  A
C187       C1957   1.501       .  S
C187        N188   1.345       .  A
N188        C189   1.346       .  A
C189       C1637   1.505   1_655  S
C189        N190   1.376       .  A
C191        C623   1.504   1_655  S
C191        N192   1.379   1_655  A
C191        N196   1.375       .  A
N192        C193   1.371       .  A
C193       C1618   1.480       .  S
C193        N194   1.338   1_455  A
N194        C195   1.336       .  A
C195       C1973   1.470       .  S
C195        N196   1.366       .  A
O197       Ni203   1.906       .  S
O197        C218   1.268       .  A
O198       Ni221   1.889       .  S
O198        C207   1.264       .  A
O199       Ni203   1.900       .  S
O199       Ni221   1.894       .  S
O199       Ni215   1.943       .  S
O199        H222   0.967       .  S
C200        O217   1.299       .  A
C200        O209   1.281       .  A
C200       C1698   1.497       .  S
O201       Ni220   1.973       .  S
O201        C207   1.288       .  A
O202       Ni220   1.944       .  S
O202        C204   1.283       .  A
Ni203       O206   1.941       .  S
Ni203       O208   1.932       .  S
C204        O214   1.271       .  A
C204       C1634   1.520       .  S
O205       Ni221   1.947       .  S
O205        C211   1.279       .  A
O206        C211   1.277       .  A
C207       C1621   1.493       .  S
O208        C210   1.271       .  A
O209       Ni220   1.926       .  S
C210        O216   1.278       .  A
C210       C1669   1.533       .  S
C211       C1733   1.510       .  S
H212        O213   0.966       .  S
O213       Ni221   1.895       .  S
O213       Ni215   1.900       .  S
O213       Ni220   1.892       .  S
O214       Ni215   1.934       .  S
Ni215       O219   1.960       .  S
Ni215       O217   1.965       .  S
O216       Ni221   1.957       .  S
C218        O219   1.287       .  A
C218       C1682   1.497       .  S
O223       Ni229   1.896       .  S
O223        C244   1.263       .  A
O224       Ni247   1.898       .  S
O224        C233   1.266       .  A
O225       Ni229   1.896       .  S
O225       Ni247   1.893       .  S
O225       Ni241   1.926       .  S
O225        H248   0.966       .  S
C226        O243   1.295       .  A
C226        O235   1.281       .  A
C226       C1749   1.506       .  S
O227       Ni246   1.967       .  S
O227        C233   1.283       .  A
O228       Ni246   1.930       .  S
O228        C230   1.276       .  A
Ni229       O232   1.924       .  S
Ni229       O234   1.928       .  S
C230        O240   1.275       .  A
C230       C1586   1.504       .  S
O231       Ni247   1.939       .  S
O231        C237   1.279       .  A
O232        C237   1.278       .  A
C233       C1570   1.512       .  S
O234        C236   1.270       .  A
O235       Ni246   1.920       .  S
C236        O242   1.271       .  A
C236       C1554   1.500       .  S
C237       C1602   1.494       .  S
H238        O239   0.966       .  S
O239       Ni247   1.895       .  S
O239       Ni241   1.920       .  S
O239       Ni246   1.884       .  S
O240       Ni241   1.940       .  S
Ni241       O245   1.974       .  S
Ni241       O243   1.953       .  S
O242       Ni247   1.944       .  S
C244        O245   1.288       .  A
C244       C1538   1.507       .  S
O249       Ni255   1.891       .  S
O249        C270   1.259       .  A
O250       Ni273   1.899       .  S
O250        C259   1.268       .  A
O251       Ni255   1.893       .  S
O251       Ni273   1.887       .  S
O251       Ni267   1.935       .  S
O251        H274   0.967       .  S
C252        O269   1.295       .  A
C252        O261   1.283       .  A
C252       C1506   1.490       .  S
O253       Ni272   1.973       .  S
O253        C259   1.287       .  A
O254       Ni272   1.931       .  S
O254        C256   1.277       .  A
Ni255       O258   1.931       .  S
Ni255       O260   1.920       .  S
C256        O266   1.275       .  A
C256       C1717   1.505   1_455  S
O257       Ni273   1.949       .  S
O257        C263   1.284       .  A
O258        C263   1.279       .  A
C259       C1653   1.494       .  S
O260        C262   1.265       .  A
O261       Ni272   1.936       .  S
C262        O268   1.273       .  A
C262       C1522   1.526       .  S
C263       C1474   1.501       .  S
H264        O265   0.967       .  S
O265       Ni273   1.897       .  S
O265       Ni267   1.909       .  S
O265       Ni272   1.884       .  S
O266       Ni267   1.937       .  S
Ni267       O271   1.974       .  S
Ni267       O269   1.943       .  S
O268       Ni273   1.955       .  S
C270        O271   1.285       .  A
C270       C1490   1.500       .  S
C275        C597   1.504   1_455  S
C275        N276   1.372       .  A
C275        N280   1.375   1_455  A
N276        C277   1.369       .  A
C277       C2066   1.500       .  S
C277        N278   1.348       .  A
N278        C279   1.346   1_455  A
C279       C1493   1.495       .  S
C279        N280   1.368       .  A
C281       C1477   1.497       .  S
C281        N282   1.376       .  A
C281        N286   1.344       .  A
N282        C283   1.382       .  A
C283        C681   1.527       .  S
C283        N284   1.380       .  A
N284        C285   1.374       .  A
C285       C1557   1.497       .  S
C285        N286   1.345       .  A
C287       C1525   1.488       .  S
C287        N288   1.339       .  A
C287        N292   1.375       .  A
N288        C289   1.338       .  A
C289       C1605   1.483       .  S
C289        N290   1.369       .  A
N290        C291   1.379       .  A
C291        C475   1.517       .  S
C291        N292   1.384       .  A
C293        C689   1.512       .  S
C293        N294   1.376       .  A
C293        N298   1.381       .  A
N294        C295   1.368       .  A
C295       C1509   1.484   1_655  S
C295        N296   1.339       .  A
N296        C297   1.339       .  A
C297       C2053   1.482       .  S
C297        N298   1.375       .  A
C299        C703   1.529       .  S
C299        N300   1.383       .  A
C299        N304   1.384       .  A
N300        C301   1.376       .  A
C301       C1541   1.492       .  S
C301        N302   1.338       .  A
N302        C303   1.340       .  A
C303       C1810   1.496   1_565  S
C303        N304   1.376       .  A
C305        C695   1.510       .  S
C305        N306   1.378       .  A
C305        N310   1.377       .  A
N306        C307   1.372       .  A
C307       C2005   1.484       .  S
C307        N308   1.342       .  A
N308        C309   1.342       .  A
C309       C1858   1.487   1_554  S
C309        N310   1.368       .  A
C311        C443   1.526       .  S
C311        N312   1.386       .  A
C311        N316   1.375       .  A
N312        C313   1.380       .  A
C313       C2229   1.510       .  S
C313        N314   1.346       .  A
N314        C315   1.350       .  A
C315       C1589   1.487       .  S
C315        N316   1.370       .  A
C317        C633   1.513       .  S
C317        N318   1.377       .  A
C317        N322   1.378       .  A
N318        C319   1.370       .  A
C319       C1573   1.496       .  S
C319        N320   1.347       .  A
N320        C321   1.346       .  A
C321       C2213   1.490       .  S
C321        N322   1.372       .  A
C323        C615   1.508       .  S
C323        N324   1.377       .  A
C323        N328   1.373       .  A
N324        C325   1.373       .  A
C325       C2117   1.487       .  S
C325        N326   1.348       .  A
N326        C327   1.346       .  A
C327       C2162   1.488       .  S
C327        N328   1.367       .  A
C329        C609   1.510       .  S
C329        N330   1.374       .  A
C329        N334   1.380       .  A
N330        C331   1.365       .  A
C331       C1906   1.500       .  S
C331        N332   1.343       .  A
N332        C333   1.345       .  A
C333       C2149   1.501       .  S
C333        N334   1.375       .  A
C335       C1893   1.472       .  S
C335        N336   1.368       .  A
C335        N340   1.337       .  A
N336        C337   1.375       .  A
C337        C605   1.503       .  S
C337        N338   1.379       .  A
N338        C339   1.369       .  A
C339       C2197   1.486       .  S
C339        N340   1.335       .  A
C341        C651   1.525       .  S
C341        N342   1.381       .  A
C341        N346   1.376       .  A
N342        C343   1.377       .  A
C343       C2181   1.512       .  S
C343        N344   1.353       .  A
N344        C345   1.352       .  A
C345       C2098   1.503       .  S
C345        N346   1.372       .  A
C347       C2037   1.498       .  S
C347        N348   1.341       .  A
C347        N352   1.381       .  A
N348        C349   1.340       .  A
C349       C2130   1.483       .  S
C349        N350   1.369       .  A
N350        C351   1.377       .  A
C351        C437   1.529       .  S
C351        N352   1.387       .  A
O353       Ni359   1.955       .  S
O353        C374   1.283       .  A
O354       Ni377   1.964       .  S
O354        C363   1.288       .  A
O355       Ni359   1.877       .  S
O355       Ni377   1.900       .  S
O355       Ni371   1.888       .  S
O355        H378   0.967       .  S
C356        O373   1.280       .  A
C356        O365   1.279       .  A
C356       C1394   1.499       .  S
O357       Ni376   1.897       .  S
O357        C363   1.262       .  A
O358       Ni376   1.921       .  S
O358        C360   1.267       .  A
Ni359       O362   1.920       .  S
Ni359       O364   1.928       .  S
C360        O370   1.267       .  A
C360       C1410   1.487       .  S
O361       Ni377   1.954       .  S
O361        C367   1.297       .  A
O362        C367   1.283       .  A
C363       C1442   1.492       .  S
O364        C366   1.275       .  A
O365       Ni376   1.927       .  S
C366        O372   1.275       .  A
C366       C1426   1.491       .  S
C367       C1381   1.503       .  S
H368        O369   0.966       .  S
O369       Ni377   1.932       .  S
O369       Ni371   1.881       .  S
O369       Ni376   1.889       .  S
O370       Ni371   1.937       .  S
Ni371       O375   1.880       .  S
Ni371       O373   1.946       .  S
O372       Ni377   1.942       .  S
C374        O375   1.262       .  A
C374       C1461   1.467   1_455  S
O379       Ni385   1.956       .  S
O379        C400   1.281       .  A
O380       Ni403   1.969       .  S
O380        C389   1.289       .  A
O381       Ni385   1.893       .  S
O381       Ni403   1.916       .  S
O381       Ni397   1.916       .  S
O381        H404   0.967       .  S
C382        O399   1.286       .  A
C382        O391   1.280       .  A
C382       C1298   1.525       .  S
O383       Ni402   1.892       .  S
O383        C389   1.262       .  A
O384       Ni402   1.920       .  S
O384        C386   1.268       .  A
Ni385       O388   1.916       .  S
Ni385       O390   1.939       .  S
C386        O396   1.279       .  A
C386       C1282   1.507       .  S
O387       Ni403   1.986       .  S
O387        C393   1.303       .  A
O388        C393   1.279       .  A
C389       C1333   1.490       .  S
O390        C392   1.278       .  A
O391       Ni402   1.926       .  S
C392        O398   1.272       .  A
C392       C1314   1.495       .  S
C393       C1346   1.531       .  S
H394        O395   0.966       .  S
O395       Ni403   1.947       .  S
O395       Ni397   1.880       .  S
O395       Ni402   1.887       .  S
O396       Ni397   1.970       .  S
Ni397       O401   1.906       .  S
Ni397       O399   1.963       .  S
O398       Ni403   1.933       .  S
C400        O401   1.269       .  A
C400       C1362   1.507   1_545  S
C405        N406   1.383       .  A
C405        N410   1.380       .  A
N406        C407   1.379       .  A
C407       C1349   1.511       .  S
C407        N408   1.344       .  A
N408        C409   1.347       .  A
C409       C1266   1.501       .  S
C409        N410   1.375       .  A
O411       Ni417   1.974       .  S
O411        C432   1.288       .  A
O412       Ni435   1.977       .  S
O412        C421   1.288       .  A
O413       Ni417   1.884       .  S
O413       Ni435   1.899       .  S
O413       Ni429   1.889       .  S
O413        H436   0.966       .  S
C414        O431   1.280       .  A
C414        O423   1.279       .  A
C414       C1202   1.506       .  S
O415       Ni434   1.891       .  S
O415        C421   1.261       .  A
O416       Ni434   1.928       .  S
O416        C418   1.267       .  A
Ni417       O420   1.924       .  S
Ni417       O422   1.942       .  S
C418        O428   1.270       .  A
C418       C1234   1.522       .  S
O419       Ni435   1.969       .  S
O419        C425   1.304       .  A
O420        C425   1.280       .  A
C421       C1186   1.501       .  S
O422        C424   1.281       .  A
O423       Ni434   1.942       .  S
C424        O430   1.271       .  A
C424       C1269   1.514       .  S
C425       C1221   1.491       .  S
H426        O427   0.966       .  S
O427       Ni435   1.947       .  S
O427       Ni429   1.878       .  S
O427       Ni434   1.892       .  S
O428       Ni429   1.942       .  S
Ni429       O433   1.869       .  S
Ni429       O431   1.945       .  S
O430       Ni435   1.925       .  S
C432        O433   1.259       .  A
C432       C1253   1.478       .  S
C437        N438   1.384       .  A
C437        N442   1.383       .  A
N438        C439   1.373       .  A
C439       C1205   1.499       .  S
C439        N440   1.339       .  A
N440        C441   1.345       .  A
C441       C1170   1.514       .  S
C441        N442   1.378       .  A
C443        N444   1.387       .  A
C443        N448   1.376       .  A
N444        C445   1.380       .  A
C445       C1138   1.521       .  S
C445        N446   1.345       .  A
N446        C447   1.345       .  A
C447       C1154   1.491       .  S
C447        N448   1.370       .  A
O449       Ni455   1.978       .  S
O449        C470   1.289       .  A
O450       Ni473   1.978       .  S
O450        C459   1.294       .  A
O451       Ni455   1.890       .  S
O451       Ni473   1.914       .  S
O451       Ni467   1.893       .  S
O451        H474   0.967       .  S
C452        O469   1.278       .  A
C452        O461   1.276       .  A
C452       C1106   1.517       .  S
O453       Ni472   1.911       .  S
O453        C459   1.270       .  A
O454       Ni472   1.934       .  S
O454        C456   1.273       .  A
Ni455       O458   1.918       .  S
Ni455       O460   1.943       .  S
C456        O466   1.269       .  A
C456       C1093   1.496       .  S
O457       Ni473   1.967       .  S
O457        C463   1.300       .  A
O458        C463   1.280       .  A
C459       C1074   1.510       .  S
O460        C462   1.282       .  A
O461       Ni472   1.935       .  S
C462        O468   1.274       .  A
C462       C1125   1.496       .  S
C463       C1173   1.513       .  S
H464        O465   0.963       .  S
O465       Ni473   1.933       .  S
O465       Ni467   1.891       .  S
O465       Ni472   1.895       .  S
O466       Ni467   1.934       .  S
Ni467       O471   1.887       .  S
Ni467       O469   1.943       .  S
O468       Ni473   1.934       .  S
C470        O471   1.260       .  A
C470       C1157   1.515   1_554  S
C475        N476   1.381       .  A
C475        N480   1.379       .  A
N476        C477   1.375       .  A
C477       C1378   1.507       .  S
C477        N478   1.343       .  A
N478        C479   1.339       .  A
C479       C1189   1.498       .  S
C479        N480   1.370       .  A
O481       Ni487   1.971       .  S
O481        C502   1.284       .  A
O482       Ni505   2.001       .  S
O482        C491   1.297       .  A
O483       Ni487   1.882       .  S
O483       Ni505   1.925       .  S
O483       Ni499   1.897       .  S
O483        H506   0.967       .  S
C484        O501   1.280       .  A
C484        O493   1.275   1_554  A
C484       C1029   1.480       .  S
O485       Ni504   1.892       .  S
O485        C491   1.260       .  A
O486       Ni504   1.920       .  S
O486        C488   1.266       .  A
Ni487       O490   1.923       .  S
Ni487       O492   1.917       .  S
C488        O498   1.266       .  A
C488       C1058   1.511       .  S
O489       Ni505   1.945       .  S
O489        C495   1.294       .  A
O490        C495   1.279       .  A
C491       C1141   1.520   1_554  S
O492        C494   1.277       .  A
O493       Ni504   1.919   1_556  S
C494        O500   1.285       .  A
C494        C997   1.509       .  S
C495       C1042   1.479       .  S
H496        O497   0.967       .  S
O497       Ni505   1.927       .  S
O497       Ni499   1.896       .  S
O497       Ni504   1.899       .  S
O498       Ni499   1.927       .  S
Ni499       O503   1.908       .  S
Ni499       O501   1.936       .  S
O500       Ni505   1.965       .  S
C502        O503   1.266       .  A
C502       C1013   1.500       .  S
C507        N508   1.383   1_554  A
C507        N512   1.379       .  A
N508        C509   1.375       .  A
C509        C978   1.490       .  S
C509        N510   1.338   1_556  A
N510        C511   1.341       .  A
C511       C1061   1.481       .  S
C511        N512   1.372       .  A
O513       Ni519   1.967       .  S
O513        C534   1.286       .  A
O514       Ni537   1.967       .  S
O514        C523   1.287       .  A
O515       Ni519   1.882       .  S
O515       Ni537   1.905       .  S
O515       Ni531   1.889       .  S
O515        H538   0.965       .  S
C516        O533   1.280       .  A
C516        O525   1.277       .  A
C516        C962   1.498       .  S
O517       Ni536   1.898       .  S
O517        C523   1.264       .  A
O518       Ni536   1.925       .  S
O518        C520   1.270       .  A
Ni519       O522   1.920       .  S
Ni519       O524   1.947       .  S
C520        O530   1.276       .  A
C520        C914   1.509       .  S
O521       Ni537   1.947       .  S
O521        C527   1.296       .  A
O522        C527   1.280       .  A
C523        C882   1.500       .  S
O524        C526   1.280       .  A
O525       Ni536   1.921       .  S
C526        O532   1.275       .  A
C526        C930   1.508       .  S
C527        C901   1.495       .  S
H528        O529   0.967       .  S
O529       Ni537   1.927       .  S
O529       Ni531   1.892       .  S
O529       Ni536   1.891       .  S
O530       Ni531   1.964       .  S
Ni531       O535   1.906       .  S
Ni531       O533   1.944       .  S
O532       Ni537   1.948       .  S
C534        O535   1.272       .  A
C534        C949   1.516   1_545  S
C539        C965   1.479       .  S
C539        N540   1.369       .  A
C539        N544   1.341       .  A
N540        C541   1.377       .  A
C541        N542   1.379       .  A
N542        C543   1.370       .  A
C543        C866   1.483       .  S
C543        N544   1.340       .  A
O545       Ni551   1.972       .  S
O545        C566   1.286       .  A
O546       Ni569   1.989       .  S
O546        C555   1.293       .  A
O547       Ni551   1.884       .  S
O547       Ni569   1.908       .  S
O547       Ni563   1.894       .  S
O547        H570   0.967       .  S
C548        O565   1.278       .  A
C548        O557   1.280       .  A
C548        C802   1.505       .  S
O549       Ni568   1.896       .  S
O549        C555   1.261       .  A
O550       Ni568   1.923       .  S
O550        C552   1.266       .  A
Ni551       O554   1.925       .  S
Ni551       O556   1.933       .  S
C552        O562   1.267       .  A
C552        C869   1.516       .  S
O553       Ni569   1.973       .  S
O553        C559   1.303       .  A
O554        C559   1.280       .  A
C555        C818   1.515       .  S
O556        C558   1.279       .  A
O557       Ni568   1.942       .  S
C558        O564   1.276       .  A
C558        C834   1.501   1_556  S
C559        C981   1.496       .  S
H560        O561   0.965       .  S
O561       Ni569   1.948       .  S
O561       Ni563   1.886       .  S
O561       Ni568   1.900       .  S
O562       Ni563   1.928       .  S
Ni563       O567   1.876       .  S
Ni563       O565   1.943       .  S
O564       Ni569   1.932       .  S
C566        O567   1.259       .  A
C566        C850   1.485       .  S
O571       Ni577   1.966       .  S
O571        C592   1.286       .  A
O572       Ni595   1.976       .  S
O572        C581   1.286       .  A
O573       Ni577   1.882       .  S
O573       Ni595   1.907       .  S
O573       Ni589   1.899       .  S
O573        H596   0.965       .  S
C574        O591   1.282       .  A
C574        O583   1.279   1_455  A
C574        C738   1.504   1_556  S
O575       Ni594   1.890       .  S
O575        C581   1.261       .  A
O576       Ni594   1.924       .  S
O576        C578   1.270       .  A
Ni577       O580   1.932       .  S
Ni577       O582   1.941       .  S
C578        O588   1.266       .  A
C578        C789   1.513       .  S
O579       Ni595   1.960       .  S
O579        C585   1.298       .  A
O580        C585   1.283       .  A
C581        C770   1.507   1_455  S
O582        C584   1.281       .  A
O583       Ni594   1.931   1_655  S
C584        O590   1.269       .  A
C584        C722   1.515       .  S
C585        C754   1.497       .  S
H586        O587   0.966       .  S
O587       Ni595   1.940       .  S
O587       Ni589   1.889       .  S
O587       Ni594   1.899       .  S
O588       Ni589   1.933       .  S
Ni589       O593   1.901       .  S
Ni589       O591   1.943       .  S
O590       Ni595   1.927       .  S
C592        O593   1.268       .  A
C592        C706   1.511       .  S
C597        N598   1.380   1_655  A
C597        N602   1.373       .  A
N598        C599   1.372       .  A
C599        C786   1.484       .  S
C599        N600   1.341   1_455  A
N600        C601   1.340       .  A
C601        C853   1.473       .  S
C601        N602   1.364       .  A
C603       C1458   1.490       .  S
C603        N604   1.363       .  A
C603        N608   1.341       .  A
N604        C605   1.372       .  A
C605        N606   1.382       .  A
N606        C607   1.374       .  A
C607        C773   1.501       .  S
C607        N608   1.340       .  A
C609        N610   1.376       .  A
C609        N614   1.374       .  A
N610        C611   1.373       .  A
C611       C1429   1.494       .  S
C611        N612   1.350       .  A
N612        C613   1.348       .  A
C613        C757   1.490       .  S
C613        N614   1.367       .  A
C615        N616   1.374       .  A
C615        N620   1.377       .  A
N616        C617   1.367       .  A
C617       C1365   1.491       .  S
C617        N618   1.348       .  A
N618        C619   1.349       .  A
C619        C946   1.496       .  S
C619        N620   1.373       .  A
C621       C1413   1.484   1_655  S
C621        N622   1.367       .  A
C621        N626   1.342   1_655  A
N622        C623   1.376   1_655  A
C623        N624   1.375       .  A
N624        C625   1.371       .  A
C625        C898   1.498       .  S
C625        N626   1.343       .  A
C627        C885   1.494       .  S
C627        N628   1.376       .  A
C627        N632   1.341       .  A
N628        C629   1.383       .  A
C629        N630   1.379   1_655  A
N630        C631   1.371       .  A
C631       C1397   1.490       .  S
C631        N632   1.341   1_455  A
C633        N634   1.376       .  A
C633        N638   1.380       .  A
N634        C635   1.368       .  A
C635       C1045   1.480       .  S
C635        N636   1.342       .  A
N636        C637   1.342       .  A
C637       C1122   1.486       .  S
C637        N638   1.374       .  A
C639       C1301   1.494   1_565  S
C639        N640   1.346       .  A
C639        N644   1.373       .  A
N640        C641   1.347       .  A
C641       C1010   1.494       .  S
C641        N642   1.376       .  A
N642        C643   1.380       .  A
C643        N644   1.379       .  A
C645       C1109   1.488   1_556  S
C645        N646   1.372       .  A
C645        N650   1.335       .  A
N646        C647   1.382       .  A
C647        N648   1.386       .  A
N648        C649   1.376       .  A
C649        C709   1.503       .  S
C649        N650   1.340       .  A
C651        N652   1.380       .  A
C651        N656   1.379       .  A
N652        C653   1.375       .  A
C653        C933   1.501       .  S
C653        N654   1.348       .  A
N654        C655   1.349       .  A
C655       C1317   1.496       .  S
C655        N656   1.375       .  A
C657        N658   1.379       .  A
C657        N662   1.385       .  A
N658        C659   1.371       .  A
C659       C1237   1.487       .  S
C659        N660   1.340       .  A
N660        C661   1.344       .  A
C661       C1077   1.512       .  S
C661        N662   1.378       .  A
C663       C1090   1.495       .  S
C663        N664   1.336       .  A
C663        N668   1.372       .  A
N664        C665   1.338       .  A
C665        C725   1.491   1_556  S
C665        N666   1.374       .  A
N666        C667   1.382       .  A
C667        N668   1.384       .  A
C669        N670   1.379       .  A
C669        N674   1.384       .  A
N670        C671   1.375       .  A
C671        C994   1.509       .  S
C671        N672   1.352       .  A
N672        C673   1.351       .  A
C673       C1285   1.520       .  S
C673        N674   1.378       .  A
C675        N676   1.384       .  A
C675        N680   1.370       .  A
N676        C677   1.379       .  A
C677       C1330   1.497       .  S
C677        N678   1.343       .  A
N678        C679   1.340       .  A
C679       C1250   1.469       .  S
C679        N680   1.360       .  A
C681        N682   1.382       .  A
C681        N686   1.383       .  A
N682        C683   1.375       .  A
C683       C1445   1.488       .  S
C683        N684   1.340       .  A
N684        C685   1.336       .  A
C685       C1218   1.489       .  S
C685        N686   1.375       .  A
C687        C741   1.486       .  S
C687        N688   1.372       .  A
C687        N692   1.345       .  A
N688        C689   1.377       .  A
C689        N690   1.376       .  A
N690        C691   1.370       .  A
C691        C837   1.490       .  S
C691        N692   1.345       .  A
C693       C1026   1.483       .  S
C693        N694   1.365       .  A
C693        N698   1.343       .  A
N694        C695   1.375       .  A
C695        N696   1.382       .  A
N696        C697   1.376       .  A
C697        C821   1.505       .  S
C697        N698   1.343       .  A
C699        C917   1.509       .  S
C699        N700   1.346       .  A
C699        N704   1.378       .  A
N700        C701   1.344       .  A
C701        C805   1.496       .  S
C701        N702   1.373       .  A
N702        C703   1.381       .  A
C703        N704   1.386       .  A
C705        C706   1.420       .  A
C705        C710   1.422       .  A
C705        H712   1.082       .  S
C706        C707   1.421       .  A
C707        C708   1.410   1_556  A
C707        C714   1.521   1_556  S
C708        C709   1.413   1_554  A
C708        H713   1.084       .  S
C709        C710   1.410       .  A
C710        C711   1.512       .  S
C711        F715   1.384       .  S
C711        F716   1.382       .  S
C711        F717   1.384       .  S
C714        F718   1.383       .  S
C714        F719   1.380       .  S
C714        F720   1.384       .  S
C721        C722   1.403   1_554  A
C721        C726   1.406       .  A
C721        H728   1.084       .  S
C722        C723   1.436       .  A
C723        C724   1.419       .  A
C723        C730   1.514       .  S
C724        C725   1.398   1_556  A
C724        H729   1.083       .  S
C725        C726   1.425       .  A
C726        C727   1.517       .  S
C727        F731   1.383       .  S
C727        F732   1.384       .  S
C727        F733   1.384       .  S
C730        F734   1.377       .  S
C730        F735   1.383       .  S
C730        F736   1.385       .  S
C737        C738   1.406   1_655  A
C737        C742   1.414       .  A
C737        H744   1.084   1_554  S
C738        C739   1.426       .  A
C739        C740   1.413       .  A
C739        C746   1.515       .  S
C740        C741   1.399   1_455  A
C740        H745   1.084       .  S
C741        C742   1.420       .  A
C742        C743   1.514       .  S
C743        F747   1.384       .  S
C743        F748   1.382       .  S
C743        F749   1.384       .  S
C746        F750   1.381       .  S
C746        F751   1.384       .  S
C746        F752   1.384       .  S
C753        C754   1.411       .  A
C753        C758   1.416       .  A
C753        H760   1.083       .  S
C754        C755   1.414       .  A
C755        C756   1.412       .  A
C755        C762   1.510       .  S
C756        C757   1.407       .  A
C756        H761   1.083       .  S
C757        C758   1.415       .  A
C758        C759   1.518       .  S
C759        F763   1.384       .  S
C759        F764   1.383       .  S
C759        F765   1.383       .  S
C762        F766   1.381       .  S
C762        F767   1.384       .  S
C762        F768   1.384       .  S
C769        C770   1.419       .  A
C769        C774   1.413       .  A
C769        H776   1.083       .  S
C770        C771   1.414   1_655  A
C771        C772   1.414   1_455  A
C771        C778   1.515       .  S
C772        C773   1.418       .  A
C772        H777   1.083       .  S
C773        C774   1.410       .  A
C774        C775   1.515       .  S
C775        F779   1.385       .  S
C775        F780   1.383       .  S
C775        F781   1.383       .  S
C778        F782   1.378       .  S
C778        F783   1.383       .  S
C778        F784   1.385       .  S
C785        C786   1.404       .  A
C785        C790   1.415       .  A
C785        H792   1.083       .  S
C786        C787   1.414   1_455  A
C787        C788   1.416   1_655  A
C787        C794   1.517       .  S
C788        C789   1.414       .  A
C788        H793   1.082   1_455  S
C789        C790   1.428       .  A
C790        C791   1.521       .  S
C791        F795   1.385       .  S
C791        F796   1.381       .  S
C791        F797   1.384       .  S
C794        F798   1.383       .  S
C794        F799   1.383       .  S
C794        F800   1.385       .  S
C801        C802   1.401   1_545  A
C801        C806   1.414   1_655  A
C801        H808   1.084       .  S
C802        C803   1.426   1_655  A
C803        C804   1.419       .  A
C803        C810   1.515       .  S
C804        C805   1.404       .  A
C804        H809   1.083       .  S
C805        C806   1.423   1_565  A
C806        C807   1.512       .  S
C807        F811   1.384       .  S
C807        F812   1.383       .  S
C807        F813   1.384       .  S
C810        F814   1.378   1_455  S
C810        F815   1.383       .  S
C810        F816   1.385       .  S
C817        C818   1.421   1_545  A
C817        C822   1.414       .  A
C817        H824   1.082       .  S
C818        C819   1.414   1_556  A
C819        C820   1.420   1_565  A
C819        C826   1.515       .  S
C820        C821   1.420       .  A
C820        H825   1.083       .  S
C821        C822   1.413   1_554  A
C822        C823   1.519       .  S
C823        F827   1.385       .  S
C823        F828   1.382       .  S
C823        F829   1.384       .  S
C826        F830   1.383       .  S
C826        F831   1.383       .  S
C826        F832   1.385       .  S
C833        C834   1.413       .  A
C833        C838   1.413       .  A
C833        H840   1.083       .  S
C834        C835   1.417       .  A
C835        C836   1.414       .  A
C835        C842   1.517   1_654  S
C836        C837   1.411       .  A
C836        H841   1.084   1_655  S
C837        C838   1.413       .  A
C838        C839   1.517       .  S
C839        F843   1.383       .  S
C839        F844   1.384       .  S
C839        F845   1.383       .  S
C842        F846   1.384       .  S
C842        F847   1.383       .  S
C842        F848   1.385       .  S
C849        C850   1.400       .  A
C849        C854   1.405       .  A
C849        H856   1.083   1_655  S
C850        C851   1.423       .  A
C851        C852   1.412       .  A
C851        C858   1.519       .  S
C852        C853   1.401       .  A
C852        H857   1.083       .  S
C853        C854   1.418       .  A
C854        C855   1.517   1_655  S
C855        F859   1.383       .  S
C855        F860   1.384       .  S
C855        F861   1.383       .  S
C858        F862   1.383       .  S
C858        F863   1.383       .  S
C858        F864   1.384       .  S
C865        C866   1.404       .  A
C865        C870   1.416       .  A
C865        H872   1.083   1_565  S
C866        C867   1.411       .  A
C867        C868   1.413       .  A
C867        C874   1.517       .  S
C868        C869   1.416       .  A
C868        H873   1.082       .  S
C869        C870   1.430       .  A
C870        C871   1.520   1_565  S
C871        F875   1.385       .  S
C871        F876   1.383       .  S
C871        F877   1.382       .  S
C874        F878   1.383       .  S
C874        F879   1.383       .  S
C874        F880   1.385       .  S
C881        C882   1.414       .  A
C881        C886   1.415       .  A
C881        H888   1.083       .  S
C882        C883   1.417       .  A
C883        C884   1.415       .  A
C883        C890   1.519       .  S
C884        C885   1.413       .  A
C884        H889   1.083       .  S
C885        C886   1.412       .  A
C886        C887   1.514   1_655  S
C887        F891   1.384       .  S
C887        F892   1.383   1_455  S
C887        F893   1.383       .  S
C890        F894   1.384       .  S
C890        F895   1.383       .  S
C890        F896   1.385       .  S
C897        C898   1.399   1_655  A
C897        C902   1.410       .  A
C897        H904   1.083       .  S
C898        C899   1.432       .  A
C899        C900   1.405   1_455  A
C899        C906   1.519       .  S
C900        C901   1.396       .  A
C900        H905   1.084       .  S
C901        C902   1.431       .  A
C902        C903   1.519       .  S
C903        F907   1.386       .  S
C903        F908   1.383       .  S
C903        F909   1.384       .  S
C906        F910   1.383       .  S
C906        F911   1.384       .  S
C906        F912   1.385       .  S
C913        C914   1.400   1_565  A
C913        C918   1.410   1_655  A
C913        H920   1.085       .  S
C914        C915   1.428   1_655  A
C915        C916   1.427       .  A
C915        C922   1.515       .  S
C916        C917   1.406   1_545  A
C916        H921   1.083       .  S
C917        C918   1.428       .  A
C918        C919   1.519       .  S
C919        F923   1.384   1_455  S
C919        F924   1.384   1_455  S
C919        F925   1.383       .  S
C922        F926   1.380   1_455  S
C922        F927   1.383       .  S
C922        F928   1.385       .  S
C929        C930   1.403       .  A
C929        C934   1.417       .  A
C929        H936   1.084       .  S
C930        C931   1.426       .  A
C931        C932   1.421       .  A
C931        C938   1.515       .  S
C932        C933   1.404       .  A
C932        H937   1.083       .  S
C933        C934   1.423       .  A
C934        C935   1.515       .  S
C935        F939   1.385       .  S
C935        F940   1.382       .  S
C935        F941   1.384       .  S
C938        F942   1.382       .  S
C938        F943   1.382       .  S
C938        F944   1.385       .  S
C945        C946   1.408       .  A
C945        C950   1.414       .  A
C945        H952   1.084       .  S
C946        C947   1.413       .  A
C947        C948   1.418       .  A
C947        C954   1.516       .  S
C948        C949   1.416       .  A
C948        H953   1.080       .  S
C949        C950   1.424       .  A
C950        C951   1.519   1_565  S
C951        F955   1.385   1_545  S
C951        F956   1.384       .  S
C951        F957   1.383       .  S
C954        F958   1.383       .  S
C954        F959   1.383       .  S
C954        F960   1.384       .  S
C961        C962   1.409       .  A
C961        C966   1.411       .  A
C961        H968   1.083       .  S
C962        C963   1.419   1_545  A
C963        C964   1.413       .  A
C963        C970   1.515       .  S
C964        C965   1.406       .  A
C964        H969   1.083       .  S
C965        C966   1.414   1_565  A
C966        C967   1.517       .  S
C967        F971   1.384       .  S
C967        F972   1.383       .  S
C967        F973   1.383       .  S
C970        F974   1.384       .  S
C970        F975   1.377       .  S
C970        F976   1.385       .  S
C977        C978   1.405       .  A
C977        C982   1.415       .  A
C977        H984   1.083       .  S
C978        C979   1.424   1_556  A
C979        C980   1.419   1_554  A
C979        C986   1.515       .  S
C980        C981   1.406       .  A
C980        H985   1.085   1_556  S
C981        C982   1.422       .  A
C982        C983   1.519       .  S
C983        F987   1.385       .  S
C983        F988   1.382       .  S
C983        F989   1.383       .  S
C986        F990   1.383       .  S
C986        F991   1.383       .  S
C986        F992   1.382       .  S
C993        C994   1.410       .  A
C993        C998   1.410       .  A
C993       H1000   1.085   1_565  S
C994        C995   1.419       .  A
C995        C996   1.423       .  A
C995       C1002   1.514       .  S
C996        C997   1.414       .  A
C996       H1001   1.082       .  S
C997        C998   1.420       .  A
C998        C999   1.518   1_565  S
C999       F1003   1.384       .  S
C999       F1004   1.384   1_545  S
C999       F1005   1.383   1_545  S
C1002      F1006   1.383       .  S
C1002      F1007   1.382       .  S
C1002      F1008   1.385       .  S
C1009      C1010   1.409       .  A
C1009      C1014   1.419       .  A
C1009      H1016   1.083   1_565  S
C1010      C1011   1.418       .  A
C1011      C1012   1.417       .  A
C1011      C1018   1.516       .  S
C1012      C1013   1.406       .  A
C1012      H1017   1.083       .  S
C1013      C1014   1.417       .  A
C1014      C1015   1.516       .  S
C1015      F1019   1.384   1_565  S
C1015      F1020   1.383       .  S
C1015      F1021   1.383       .  S
C1018      F1022   1.383       .  S
C1018      F1023   1.383       .  S
C1018      F1024   1.384       .  S
C1025      C1026   1.410   1_556  A
C1025      C1030   1.406   1_545  A
C1025      H1032   1.084       .  S
C1026      C1027   1.413       .  A
C1027      C1028   1.413       .  A
C1027      C1034   1.515       .  S
C1028      C1029   1.408   1_545  A
C1028      H1033   1.083       .  S
C1029      C1030   1.410   1_554  A
C1030      C1031   1.517       .  S
C1031      F1035   1.385       .  S
C1031      F1036   1.382       .  S
C1031      F1037   1.384       .  S
C1034      F1038   1.383       .  S
C1034      F1039   1.382       .  S
C1034      F1040   1.385       .  S
C1041      C1042   1.410       .  A
C1041      C1046   1.415       .  A
C1041      H1048   1.084       .  S
C1042      C1043   1.414       .  A
C1043      C1044   1.407       .  A
C1043      C1050   1.519       .  S
C1044      C1045   1.406       .  A
C1044      H1049   1.083       .  S
C1045      C1046   1.413       .  A
C1046      C1047   1.515       .  S
C1047      F1051   1.383       .  S
C1047      F1052   1.383       .  S
C1047      F1053   1.383       .  S
C1050      F1054   1.383       .  S
C1050      F1055   1.383       .  S
C1050      F1056   1.385       .  S
C1057      C1058   1.416       .  A
C1057      C1062   1.413       .  A
C1057      H1064   1.082       .  S
C1058      C1059   1.426   1_554  A
C1059      C1060   1.414       .  A
C1059      C1066   1.521       .  S
C1060      C1061   1.406   1_556  A
C1060      H1065   1.083       .  S
C1061      C1062   1.410       .  A
C1062      C1063   1.516       .  S
C1063      F1067   1.385       .  S
C1063      F1068   1.383       .  S
C1063      F1069   1.383       .  S
C1066      F1070   1.384       .  S
C1066      F1071   1.383       .  S
C1066      F1072   1.385       .  S
C1073      C1074   1.418       .  A
C1073      C1078   1.423       .  A
C1073      H1080   1.083       .  S
C1074      C1075   1.413       .  A
C1075      C1076   1.413       .  A
C1075      C1082   1.513       .  S
C1076      C1077   1.417       .  A
C1076      H1081   1.083       .  S
C1077      C1078   1.416       .  A
C1078      C1079   1.516       .  S
C1079      F1083   1.384       .  S
C1079      F1084   1.383       .  S
C1079      F1085   1.383       .  S
C1082      F1086   1.381       .  S
C1082      F1087   1.383       .  S
C1082      F1088   1.385       .  S
C1089      C1090   1.403   1_554  A
C1089      C1094   1.420       .  A
C1089      H1096   1.083       .  S
C1090      C1091   1.429       .  A
C1091      C1092   1.407       .  A
C1091      C1098   1.518       .  S
C1092      C1093   1.398   1_556  A
C1092      H1097   1.085       .  S
C1093      C1094   1.425       .  A
C1094      C1095   1.516       .  S
C1095      F1099   1.384       .  S
C1095      F1100   1.382       .  S
C1095      F1101   1.382       .  S
C1098      F1102   1.384       .  S
C1098      F1103   1.384       .  S
C1098      F1104   1.384       .  S
C1105      C1106   1.412   1_556  A
C1105      C1110   1.419       .  A
C1105      H1112   1.081       .  S
C1106      C1107   1.430       .  A
C1107      C1108   1.416       .  A
C1107      C1114   1.520       .  S
C1108      C1109   1.404       .  A
C1108      H1113   1.084       .  S
C1109      C1110   1.418   1_554  A
C1110      C1111   1.516       .  S
C1111      F1115   1.385       .  S
C1111      F1116   1.383       .  S
C1111      F1117   1.383       .  S
C1114      F1118   1.378       .  S
C1114      F1119   1.382       .  S
C1114      F1120   1.385       .  S
C1121      C1122   1.407       .  A
C1121      C1126   1.414       .  A
C1121      H1128   1.083       .  S
C1122      C1123   1.419       .  A
C1123      C1124   1.416       .  A
C1123      C1130   1.517       .  S
C1124      C1125   1.405       .  A
C1124      H1129   1.083       .  S
C1125      C1126   1.416       .  A
C1126      C1127   1.512       .  S
C1127      F1131   1.384       .  S
C1127      F1132   1.382       .  S
C1127      F1133   1.383       .  S
C1130      F1134   1.382       .  S
C1130      F1135   1.383       .  S
C1130      F1136   1.384       .  S
C1137      C1138   1.423       .  A
C1137      C1142   1.422       .  A
C1137      H1144   1.083       .  S
C1138      C1139   1.415       .  A
C1139      C1140   1.421       .  A
C1139      C1146   1.517       .  S
C1140      C1141   1.422       .  A
C1140      H1145   1.083       .  S
C1141      C1142   1.412       .  A
C1142      C1143   1.514   1_556  S
C1143      F1147   1.385       .  S
C1143      F1148   1.383       .  S
C1143      F1149   1.383       .  S
C1146      F1150   1.383       .  S
C1146      F1151   1.383       .  S
C1146      F1152   1.385       .  S
C1153      C1154   1.398       .  A
C1153      C1158   1.418       .  A
C1153      H1160   1.083       .  S
C1154      C1155   1.419       .  A
C1155      C1156   1.409       .  A
C1155      C1162   1.516       .  S
C1156      C1157   1.406       .  A
C1156      H1161   1.083   1_556  S
C1157      C1158   1.439       .  A
C1158      C1159   1.522       .  S
C1159      F1163   1.385       .  S
C1159      F1164   1.382       .  S
C1159      F1165   1.384       .  S
C1162      F1166   1.383       .  S
C1162      F1167   1.385       .  S
C1162      F1168   1.384       .  S
C1169      C1170   1.421       .  A
C1169      C1174   1.412       .  A
C1169      H1176   1.082       .  S
C1170      C1171   1.414       .  A
C1171      C1172   1.418       .  A
C1171      C1178   1.516       .  S
C1172      C1173   1.422       .  A
C1172      H1177   1.082       .  S
C1173      C1174   1.413       .  A
C1174      C1175   1.514       .  S
C1175      F1179   1.382       .  S
C1175      F1180   1.383       .  S
C1175      F1181   1.385       .  S
C1178      F1182   1.383       .  S
C1178      F1183   1.383       .  S
C1178      F1184   1.385       .  S
C1185      C1186   1.416       .  A
C1185      C1190   1.410       .  A
C1185      H1192   1.083       .  S
C1186      C1187   1.411       .  A
C1187      C1188   1.417       .  A
C1187      C1194   1.515       .  S
C1188      C1189   1.420       .  A
C1188      H1193   1.083       .  S
C1189      C1190   1.412       .  A
C1190      C1191   1.517       .  S
C1191      F1195   1.384       .  S
C1191      F1196   1.383       .  S
C1191      F1197   1.383       .  S
C1194      F1198   1.383       .  S
C1194      F1199   1.383       .  S
C1194      F1200   1.384       .  S
C1201      C1202   1.401       .  A
C1201      C1206   1.415       .  A
C1201      H1208   1.084       .  S
C1202      C1203   1.425       .  A
C1203      C1204   1.420       .  A
C1203      C1210   1.516       .  S
C1204      C1205   1.403       .  A
C1204      H1209   1.083       .  S
C1205      C1206   1.428       .  A
C1206      C1207   1.517       .  S
C1207      F1211   1.384       .  S
C1207      F1212   1.383       .  S
C1207      F1213   1.383       .  S
C1210      F1214   1.376       .  S
C1210      F1215   1.383       .  S
C1210      F1216   1.384       .  S
C1217      C1218   1.409       .  A
C1217      C1222   1.420       .  A
C1217      H1224   1.083       .  S
C1218      C1219   1.418       .  A
C1219      C1220   1.412       .  A
C1219      C1226   1.515       .  S
C1220      C1221   1.403       .  A
C1220      H1225   1.084       .  S
C1221      C1222   1.421       .  A
C1222      C1223   1.515       .  S
C1223      F1227   1.384       .  S
C1223      F1228   1.383       .  S
C1223      F1229   1.382       .  S
C1226      F1230   1.380       .  S
C1226      F1231   1.383       .  S
C1226      F1232   1.384       .  S
C1233      C1234   1.416       .  A
C1233      C1238   1.417       .  A
C1233      H1240   1.082       .  S
C1234      C1235   1.433       .  A
C1235      C1236   1.417       .  A
C1235      C1242   1.521       .  S
C1236      C1237   1.402       .  A
C1236      H1241   1.083       .  S
C1237      C1238   1.414       .  A
C1238      C1239   1.518       .  S
C1239      F1243   1.385       .  S
C1239      F1244   1.383       .  S
C1239      F1245   1.383       .  S
C1242      F1246   1.383       .  S
C1242      F1247   1.382       .  S
C1242      F1248   1.385       .  S
C1249      C1250   1.402       .  A
C1249      C1254   1.410       .  A
C1249      H1256   1.083       .  S
C1250      C1251   1.415       .  A
C1251      C1252   1.404       .  A
C1251      C1258   1.513       .  S
C1252      C1253   1.400       .  A
C1252      H1257   1.082       .  S
C1253      C1254   1.420       .  A
C1254      C1255   1.520       .  S
C1255      F1259   1.385       .  S
C1255      F1260   1.383       .  S
C1255      F1261   1.383       .  S
C1258      F1262   1.384       .  S
C1258      F1263   1.383       .  S
C1258      F1264   1.384       .  S
C1265      C1266   1.412       .  A
C1265      C1270   1.413       .  A
C1265      H1272   1.084       .  S
C1266      C1267   1.412       .  A
C1267      C1268   1.418       .  A
C1267      C1274   1.516       .  S
C1268      C1269   1.420       .  A
C1268      H1273   1.082       .  S
C1269      C1270   1.418       .  A
C1270      C1271   1.516       .  S
C1271      F1275   1.385       .  S
C1271      F1276   1.384       .  S
C1271      F1277   1.383       .  S
C1274      F1278   1.383       .  S
C1274      F1279   1.383       .  S
C1274      F1280   1.385       .  S
C1281      C1282   1.411       .  A
C1281      C1286   1.426       .  A
C1281      H1288   1.083       .  S
C1282      C1283   1.414   1_545  A
C1283      C1284   1.419       .  A
C1283      C1290   1.518       .  S
C1284      C1285   1.416       .  A
C1284      H1289   1.083       .  S
C1285      C1286   1.421   1_565  A
C1286      C1287   1.514       .  S
C1287      F1291   1.384       .  S
C1287      F1292   1.383       .  S
C1287      F1293   1.383       .  S
C1290      F1294   1.384       .  S
C1290      F1295   1.383       .  S
C1290      F1296   1.385       .  S
C1297      C1298   1.415       .  A
C1297      C1302   1.414       .  A
C1297      H1304   1.082       .  S
C1298      C1299   1.430   1_545  A
C1299      C1300   1.422       .  A
C1299      C1306   1.516       .  S
C1300      C1301   1.405   1_565  A
C1300      H1305   1.083       .  S
C1301      C1302   1.413       .  A
C1302      C1303   1.518       .  S
C1303      F1307   1.384       .  S
C1303      F1308   1.383       .  S
C1303      F1309   1.383       .  S
C1306      F1310   1.383       .  S
C1306      F1311   1.382       .  S
C1306      F1312   1.384       .  S
C1313      C1314   1.408       .  A
C1313      C1318   1.417       .  A
C1313      H1320   1.084       .  S
C1314      C1315   1.413       .  A
C1315      C1316   1.416       .  A
C1315      C1322   1.515       .  S
C1316      C1317   1.411       .  A
C1316      H1321   1.083       .  S
C1317      C1318   1.417       .  A
C1318      C1319   1.515       .  S
C1319      F1323   1.385       .  S
C1319      F1324   1.383       .  S
C1319      F1325   1.383       .  S
C1322      F1326   1.383       .  S
C1322      F1327   1.383       .  S
C1322      F1328   1.384       .  S
C1329      C1330   1.415       .  A
C1329      C1334   1.411       .  A
C1329      H1336   1.083       .  S
C1330      C1331   1.415       .  A
C1331      C1332   1.418       .  A
C1331      C1338   1.515       .  S
C1332      C1333   1.413       .  A
C1332      H1337   1.083       .  S
C1333      C1334   1.409       .  A
C1334      C1335   1.516       .  S
C1335      F1339   1.385       .  S
C1335      F1340   1.383       .  S
C1335      F1341   1.383       .  S
C1338      F1342   1.383       .  S
C1338      F1343   1.382       .  S
C1338      F1344   1.385       .  S
C1345      C1346   1.425       .  A
C1345      C1350   1.416       .  A
C1345      H1352   1.081       .  S
C1346      C1347   1.420       .  A
C1347      C1348   1.426       .  A
C1347      C1354   1.516       .  S
C1348      C1349   1.419       .  A
C1348      H1353   1.083       .  S
C1349      C1350   1.411       .  A
C1350      C1351   1.519       .  S
C1351      F1355   1.384       .  S
C1351      F1356   1.383       .  S
C1351      F1357   1.383       .  S
C1354      F1358   1.384       .  S
C1354      F1359   1.382       .  S
C1354      F1360   1.385       .  S
C1361      C1362   1.414       .  A
C1361      C1366   1.415       .  A
C1361      H1368   1.082       .  S
C1362      C1363   1.423       .  A
C1363      C1364   1.411       .  A
C1363      C1370   1.520       .  S
C1364      C1365   1.406       .  A
C1364      H1369   1.084       .  S
C1365      C1366   1.414       .  A
C1366      C1367   1.516       .  S
C1367      F1371   1.384       .  S
C1367      F1372   1.383       .  S
C1367      F1373   1.383       .  S
C1370      F1374   1.384   1_565  S
C1370      F1375   1.383   1_565  S
C1370      F1376   1.385       .  S
C1377      C1378   1.420       .  A
C1377      C1382   1.410       .  A
C1377      H1384   1.083       .  S
C1378      C1379   1.411       .  A
C1379      C1380   1.415       .  A
C1379      C1386   1.515       .  S
C1380      C1381   1.420       .  A
C1380      H1385   1.083       .  S
C1381      C1382   1.412       .  A
C1382      C1383   1.519       .  S
C1383      F1387   1.384       .  S
C1383      F1388   1.384       .  S
C1383      F1389   1.383       .  S
C1386      F1390   1.385       .  S
C1386      F1391   1.384       .  S
C1386      F1392   1.382       .  S
C1393      C1394   1.408       .  A
C1393      C1398   1.411       .  A
C1393      H1400   1.085       .  S
C1394      C1395   1.419   1_455  A
C1395      C1396   1.416       .  A
C1395      C1402   1.520       .  S
C1396      C1397   1.412   1_655  A
C1396      H1401   1.083       .  S
C1397      C1398   1.417       .  A
C1398      C1399   1.513       .  S
C1399      F1403   1.384       .  S
C1399      F1404   1.383       .  S
C1399      F1405   1.380       .  S
C1402      F1406   1.383       .  S
C1402      F1407   1.382       .  S
C1402      F1408   1.385       .  S
C1409      C1410   1.406       .  A
C1409      C1414   1.412       .  A
C1409      H1416   1.083       .  S
C1410      C1411   1.410   1_455  A
C1411      C1412   1.413       .  A
C1411      C1418   1.514       .  S
C1412      C1413   1.411   1_655  A
C1412      H1417   1.083       .  S
C1413      C1414   1.415       .  A
C1414      C1415   1.517       .  S
C1415      F1419   1.385       .  S
C1415      F1420   1.383       .  S
C1415      F1421   1.383       .  S
C1418      F1422   1.384       .  S
C1418      F1423   1.382       .  S
C1418      F1424   1.384       .  S
C1425      C1426   1.407       .  A
C1425      C1430   1.416       .  A
C1425      H1432   1.084       .  S
C1426      C1427   1.413       .  A
C1427      C1428   1.414       .  A
C1427      C1434   1.516       .  S
C1428      C1429   1.411       .  A
C1428      H1433   1.083       .  S
C1429      C1430   1.417       .  A
C1430      C1431   1.516       .  S
C1431      F1435   1.385       .  S
C1431      F1436   1.382       .  S
C1431      F1437   1.384       .  S
C1434      F1438   1.382       .  S
C1434      F1439   1.383       .  S
C1434      F1440   1.385       .  S
C1441      C1442   1.412       .  A
C1441      C1446   1.414       .  A
C1441      H1448   1.084       .  S
C1442      C1443   1.415       .  A
C1443      C1444   1.413       .  A
C1443      C1450   1.518       .  S
C1444      C1445   1.413       .  A
C1444      H1449   1.083       .  S
C1445      C1446   1.415       .  A
C1446      C1447   1.517       .  S
C1447      F1451   1.385       .  S
C1447      F1452   1.382       .  S
C1447      F1453   1.381       .  S
C1450      F1454   1.383       .  S
C1450      F1455   1.383       .  S
C1450      F1456   1.385       .  S
C1457      C1458   1.411       .  A
C1457      C1462   1.395       .  A
C1457      H1464   1.084       .  S
C1458      C1459   1.417       .  A
C1459      C1460   1.415       .  A
C1459      C1466   1.515       .  S
C1460      C1461   1.407       .  A
C1460      H1465   1.083       .  S
C1461      C1462   1.412       .  A
C1462      C1463   1.526   1_655  S
C1463      F1467   1.384       .  S
C1463      F1468   1.383       .  S
C1463      F1469   1.380       .  S
C1466      F1470   1.383       .  S
C1466      F1471   1.383       .  S
C1466      F1472   1.384       .  S
C1473      C1474   1.407   1_545  A
C1473      C1478   1.413       .  A
C1473      H1480   1.085       .  S
C1474      C1475   1.417       .  A
C1475      C1476   1.420   1_565  A
C1475      C1482   1.517       .  S
C1476      C1477   1.413       .  A
C1476      H1481   1.083       .  S
C1477      C1478   1.418       .  A
C1478      C1479   1.512       .  S
C1479      F1483   1.385       .  S
C1479      F1484   1.380       .  S
C1479      F1485   1.382       .  S
C1482      F1486   1.384       .  S
C1482      F1487   1.384       .  S
C1482      F1488   1.383       .  S
C1489      C1490   1.416       .  A
C1489      C1494   1.409       .  A
C1489      H1496   1.083       .  S
C1490      C1491   1.411   1_455  A
C1491      C1492   1.416       .  A
C1491      C1498   1.514       .  S
C1492      C1493   1.417       .  A
C1492      H1497   1.083       .  S
C1493      C1494   1.413   1_655  A
C1494      C1495   1.520       .  S
C1495      F1499   1.384       .  S
C1495      F1500   1.382       .  S
C1495      F1501   1.385       .  S
C1498      F1502   1.383       .  S
C1498      F1503   1.383       .  S
C1498      F1504   1.385       .  S
C1505      C1506   1.415       .  A
C1505      C1510   1.416   1_455  A
C1505      H1512   1.084   1_455  S
C1506      C1507   1.414       .  A
C1507      C1508   1.408       .  A
C1507      C1514   1.519       .  S
C1508      C1509   1.410       .  A
C1508      H1513   1.084       .  S
C1509      C1510   1.409   1_455  A
C1510      C1511   1.515       .  S
C1511      F1515   1.380       .  S
C1511      F1516   1.384       .  S
C1511      F1517   1.383       .  S
C1514      F1518   1.383       .  S
C1514      F1519   1.383       .  S
C1514      F1520   1.384       .  S
C1521      C1522   1.415       .  A
C1521      C1526   1.419       .  A
C1521      H1528   1.082       .  S
C1522      C1523   1.435       .  A
C1523      C1524   1.419       .  A
C1523      C1530   1.522       .  S
C1524      C1525   1.403       .  A
C1524      H1529   1.083       .  S
C1525      C1526   1.414       .  A
C1526      C1527   1.517       .  S
C1527      F1531   1.384       .  S
C1527      F1532   1.383       .  S
C1527      F1533   1.383       .  S
C1530      F1534   1.380       .  S
C1530      F1535   1.383       .  S
C1530      F1536   1.385       .  S
C1537      C1538   1.414       .  A
C1537      C1542   1.416       .  A
C1537      H1544   1.083       .  S
C1538      C1539   1.420       .  A
C1539      C1540   1.418       .  A
C1539      C1546   1.517       .  S
C1540      C1541   1.411       .  A
C1540      H1545   1.083       .  S
C1541      C1542   1.414       .  A
C1542      C1543   1.516   1_565  S
C1543      F1547   1.385       .  S
C1543      F1548   1.383       .  S
C1543      F1549   1.383   1_545  S
C1546      F1550   1.383       .  S
C1546      F1551   1.383       .  S
C1546      F1552   1.385       .  S
C1553      C1554   1.403       .  A
C1553      C1558   1.412   1_565  A
C1553      H1560   1.084       .  S
C1554      C1555   1.430   1_565  A
C1555      C1556   1.416       .  A
C1555      C1562   1.516       .  S
C1556      C1557   1.400       .  A
C1556      H1561   1.084       .  S
C1557      C1558   1.423       .  A
C1558      C1559   1.515       .  S
C1559      F1563   1.384       .  S
C1559      F1564   1.384       .  S
C1559      F1565   1.383   1_545  S
C1562      F1566   1.376   1_545  S
C1562      F1567   1.382       .  S
C1562      F1568   1.384       .  S
C1569      C1570   1.416       .  A
C1569      C1574   1.416       .  A
C1569      H1576   1.081       .  S
C1570      C1571   1.423       .  A
C1571      C1572   1.413       .  A
C1571      C1578   1.519       .  S
C1572      C1573   1.409       .  A
C1572      H1577   1.084       .  S
C1573      C1574   1.413       .  A
C1574      C1575   1.516       .  S
C1575      F1579   1.383       .  S
C1575      F1580   1.383       .  S
C1575      F1581   1.385       .  S
C1578      F1582   1.383       .  S
C1578      F1583   1.384       .  S
C1578      F1584   1.385       .  S
C1585      C1586   1.413       .  A
C1585      C1590   1.419       .  A
C1585      H1592   1.083       .  S
C1586      C1587   1.426       .  A
C1587      C1588   1.407       .  A
C1587      C1594   1.520       .  S
C1588      C1589   1.400       .  A
C1588      H1593   1.084       .  S
C1589      C1590   1.416       .  A
C1590      C1591   1.515       .  S
C1591      F1595   1.385       .  S
C1591      F1596   1.383       .  S
C1591      F1597   1.383       .  S
C1594      F1598   1.380       .  S
C1594      F1599   1.382       .  S
C1594      F1600   1.385       .  S
C1601      C1602   1.409       .  A
C1601      C1606   1.413       .  A
C1601      H1608   1.083       .  S
C1602      C1603   1.415       .  A
C1603      C1604   1.413       .  A
C1603      C1610   1.515       .  S
C1604      C1605   1.410       .  A
C1604      H1609   1.083       .  S
C1605      C1606   1.414       .  A
C1606      C1607   1.516       .  S
C1607      F1611   1.385       .  S
C1607      F1612   1.383       .  S
C1607      F1613   1.383       .  S
C1610      F1614   1.379       .  S
C1610      F1615   1.384       .  S
C1610      F1616   1.384       .  S
C1617      C1618   1.402       .  A
C1617      C1622   1.416       .  A
C1617      H1624   1.083       .  S
C1618      C1619   1.425   1_455  A
C1619      C1620   1.406   1_655  A
C1619      C1626   1.519       .  S
C1620      C1621   1.399       .  A
C1620      H1625   1.083   1_455  S
C1621      C1622   1.424       .  A
C1622      C1623   1.518       .  S
C1623      F1627   1.385       .  S
C1623      F1628   1.384       .  S
C1623      F1629   1.382       .  S
C1626      F1630   1.384       .  S
C1626      F1631   1.384       .  S
C1626      F1632   1.383       .  S
C1633      C1634   1.403       .  A
C1633      C1638   1.410   1_454  A
C1633      H1640   1.084   1_455  S
C1634      C1635   1.439   1_554  A
C1635      C1636   1.424       .  A
C1635      C1642   1.520       .  S
C1636      C1637   1.401       .  A
C1636      H1641   1.083       .  S
C1637      C1638   1.425   1_455  A
C1638      C1639   1.518       .  S
C1639      F1643   1.384   1_556  S
C1639      F1644   1.384       .  S
C1639      F1645   1.383   1_556  S
C1642      F1646   1.384       .  S
C1642      F1647   1.383       .  S
C1642      F1648   1.385       .  S
C1649      C1650   1.406       .  A
C1649      C1654   1.418       .  A
C1649      H1656   1.083       .  S
C1650      C1651   1.420       .  A
C1651      C1652   1.413       .  A
C1651      C1658   1.514   1_565  S
C1652      C1653   1.402       .  A
C1652      H1657   1.084       .  S
C1653      C1654   1.420       .  A
C1654      C1655   1.517       .  S
C1655      F1659   1.384       .  S
C1655      F1660   1.383       .  S
C1655      F1661   1.383       .  S
C1658      F1662   1.380       .  S
C1658      F1663   1.384       .  S
C1658      F1664   1.382       .  S
C1665      C1666   1.403   1_565  A
C1665      C1670   1.421       .  A
C1665      H1672   1.083       .  S
C1666      C1667   1.418       .  A
C1667      C1668   1.423       .  A
C1667      C1674   1.516       .  S
C1668      C1669   1.416       .  A
C1668      H1673   1.082       .  S
C1669      C1670   1.436   1_545  A
C1670      C1671   1.522       .  S
C1671      F1675   1.385       .  S
C1671      F1676   1.382       .  S
C1671      F1677   1.383       .  S
C1674      F1678   1.383       .  S
C1674      F1679   1.381       .  S
C1674      F1680   1.385       .  S
C1681      C1682   1.415   1_565  A
C1681      C1686   1.416   1_554  A
C1681      H1688   1.083       .  S
C1682      C1683   1.409   1_554  A
C1683      C1684   1.411   1_545  A
C1683      C1690   1.517       .  S
C1684      C1685   1.421       .  A
C1684      H1689   1.082       .  S
C1685      C1686   1.416       .  A
C1686      C1687   1.515       .  S
C1687      F1691   1.385   1_556  S
C1687      F1692   1.382   1_556  S
C1687      F1693   1.384       .  S
C1690      F1694   1.383   1_556  S
C1690      F1695   1.383       .  S
C1690      F1696   1.385       .  S
C1697      C1698   1.414       .  A
C1697      C1702   1.419       .  A
C1697      H1704   1.083       .  S
C1698      C1699   1.414       .  A
C1699      C1700   1.414       .  A
C1699      C1706   1.518       .  S
C1700      C1701   1.414       .  A
C1700      H1705   1.083       .  S
C1701      C1702   1.415       .  A
C1702      C1703   1.515   1_554  S
C1703      F1707   1.384       .  S
C1703      F1708   1.384       .  S
C1703      F1709   1.382       .  S
C1706      F1710   1.383       .  S
C1706      F1711   1.383       .  S
C1706      F1712   1.385       .  S
C1713      C1714   1.412       .  A
C1713      C1718   1.414       .  A
C1713      H1720   1.084   1_565  S
C1714      C1715   1.416       .  A
C1715      C1716   1.416       .  A
C1715      C1722   1.516       .  S
C1716      C1717   1.414       .  A
C1716      H1721   1.083       .  S
C1717      C1718   1.418       .  A
C1718      C1719   1.517   1_665  S
C1719      F1723   1.385       .  S
C1719      F1724   1.383   1_545  S
C1719      F1725   1.384       .  S
C1722      F1726   1.383       .  S
C1722      F1727   1.382       .  S
C1722      F1728   1.385       .  S
C1729      C1730   1.404   1_545  A
C1729      C1734   1.421       .  A
C1729      H1736   1.083       .  S
C1730      C1731   1.426       .  A
C1731      C1732   1.416   1_655  A
C1731      C1738   1.516       .  S
C1732      C1733   1.402   1_565  A
C1732      H1737   1.083       .  S
C1733      C1734   1.426   1_455  A
C1734      C1735   1.515       .  S
C1735      F1739   1.385       .  S
C1735      F1740   1.383       .  S
C1735      F1741   1.378       .  S
C1738      F1742   1.383       .  S
C1738      F1743   1.382       .  S
C1738      F1744   1.385       .  S
C1745      C1746   1.420       .  A
C1745      C1750   1.410       .  A
C1745      H1752   1.081       .  S
C1746      C1747   1.416       .  A
C1747      C1748   1.416       .  A
C1747      C1754   1.517       .  S
C1748      C1749   1.420       .  A
C1748      H1753   1.082       .  S
C1749      C1750   1.414       .  A
C1750      C1751   1.520       .  S
C1751      F1755   1.385       .  S
C1751      F1756   1.383       .  S
C1751      F1757   1.383   1_565  S
C1754      F1758   1.385       .  S
C1754      F1759   1.383       .  S
C1754      F1760   1.383       .  S
C1761      C1762   1.398       .  A
C1761      C1766   1.422       .  A
C1761      H1768   1.083       .  S
C1762      C1763   1.424   1_556  A
C1763      C1764   1.412   1_564  A
C1763      C1770   1.516       .  S
C1764      C1765   1.404       .  A
C1764      H1769   1.084   1_556  S
C1765      C1766   1.440   1_545  A
C1766      C1767   1.520       .  S
C1767      F1771   1.385       .  S
C1767      F1772   1.384       .  S
C1767      F1773   1.381       .  S
C1770      F1774   1.383       .  S
C1770      F1775   1.383   1_565  S
C1770      F1776   1.384       .  S
C1777      C1778   1.404       .  A
C1777      C1782   1.414       .  A
C1777      H1784   1.083       .  S
C1778      C1779   1.416       .  A
C1779      C1780   1.410       .  A
C1779      C1786   1.517       .  S
C1780      C1781   1.405       .  A
C1780      H1785   1.084       .  S
C1781      C1782   1.417       .  A
C1782      C1783   1.515   1_556  S
C1783      F1787   1.384       .  S
C1783      F1788   1.383       .  S
C1783      F1789   1.383       .  S
C1786      F1790   1.383       .  S
C1786      F1791   1.382       .  S
C1786      F1792   1.385       .  S
C1793      C1794   1.411   1_554  A
C1793      C1798   1.417       .  A
C1793      H1800   1.083       .  S
C1794      C1795   1.412   1_556  A
C1795      C1796   1.412       .  A
C1795      C1802   1.516   1_554  S
C1796      C1797   1.410       .  A
C1796      H1801   1.084       .  S
C1797      C1798   1.415       .  A
C1798      C1799   1.517       .  S
C1799      F1803   1.385       .  S
C1799      F1804   1.383       .  S
C1799      F1805   1.383       .  S
C1802      F1806   1.384       .  S
C1802      F1807   1.382       .  S
C1802      F1808   1.384       .  S
C1809      C1810   1.413       .  A
C1809      C1814   1.410       .  A
C1809      H1816   1.084       .  S
C1810      C1811   1.413       .  A
C1811      C1812   1.419       .  A
C1811      C1818   1.515   1_545  S
C1812      C1813   1.416       .  A
C1812      H1817   1.084       .  S
C1813      C1814   1.413       .  A
C1814      C1815   1.519       .  S
C1815      F1819   1.384       .  S
C1815      F1820   1.382       .  S
C1815      F1821   1.384       .  S
C1818      F1822   1.382       .  S
C1818      F1823   1.383   1_565  S
C1818      F1824   1.385       .  S
C1825      C1826   1.399   1_565  A
C1825      C1830   1.410       .  A
C1825      H1832   1.084       .  S
C1826      C1827   1.433       .  A
C1827      C1828   1.409       .  A
C1827      C1834   1.517       .  S
C1828      C1829   1.395   1_545  A
C1828      H1833   1.084       .  S
C1829      C1830   1.425       .  A
C1830      C1831   1.514       .  S
C1831      F1835   1.383       .  S
C1831      F1836   1.384       .  S
C1831      F1837   1.383       .  S
C1834      F1838   1.383       .  S
C1834      F1839   1.383       .  S
C1834      F1840   1.386       .  S
C1841      C1842   1.413       .  A
C1841      C1846   1.414       .  A
C1841      H1848   1.084       .  S
C1842      C1843   1.434       .  A
C1843      C1844   1.423       .  A
C1843      C1850   1.516       .  S
C1844      C1845   1.403       .  A
C1844      H1849   1.083       .  S
C1845      C1846   1.419       .  A
C1846      C1847   1.517       .  S
C1847      F1851   1.384       .  S
C1847      F1852   1.383       .  S
C1847      F1853   1.384       .  S
C1850      F1854   1.382       .  S
C1850      F1855   1.383       .  S
C1850      F1856   1.385       .  S
C1857      C1858   1.411   1_554  A
C1857      C1862   1.411       .  A
C1857      H1864   1.084       .  S
C1858      C1859   1.411       .  A
C1859      C1860   1.412       .  A
C1859      C1866   1.514       .  S
C1860      C1861   1.411       .  A
C1860      H1865   1.083       .  S
C1861      C1862   1.417   1_556  A
C1862      C1863   1.519       .  S
C1863      F1867   1.385       .  S
C1863      F1868   1.384       .  S
C1863      F1869   1.382       .  S
C1866      F1870   1.383       .  S
C1866      F1871   1.383       .  S
C1866      F1872   1.384       .  S
C1873      C1874   1.410   1_554  A
C1873      C1878   1.420       .  A
C1873      H1880   1.083       .  S
C1874      C1875   1.409       .  A
C1875      C1876   1.408   1_556  A
C1875      C1882   1.518       .  S
C1876      C1877   1.414       .  A
C1876      H1881   1.083       .  S
C1877      C1878   1.419       .  A
C1878      C1879   1.516       .  S
C1879      F1883   1.384       .  S
C1879      F1884   1.383       .  S
C1879      F1885   1.383       .  S
C1882      F1886   1.384       .  S
C1882      F1887   1.382       .  S
C1882      F1888   1.385       .  S
C1889      C1890   1.408       .  A
C1889      C1894   1.413       .  A
C1889      H1896   1.083       .  S
C1890      C1891   1.413       .  A
C1891      C1892   1.402       .  A
C1891      C1898   1.520       .  S
C1892      C1893   1.407       .  A
C1892      H1897   1.084       .  S
C1893      C1894   1.413       .  A
C1894      C1895   1.515       .  S
C1895      F1899   1.384       .  S
C1895      F1900   1.384       .  S
C1895      F1901   1.383       .  S
C1898      F1902   1.385       .  S
C1898      F1903   1.383       .  S
C1898      F1904   1.382       .  S
C1905      C1906   1.419       .  A
C1905      C1910   1.410       .  A
C1905      H1912   1.083       .  S
C1906      C1907   1.416       .  A
C1907      C1908   1.410       .  A
C1907      C1914   1.516       .  S
C1908      C1909   1.410       .  A
C1908      H1913   1.084       .  S
C1909      C1910   1.408       .  A
C1910      C1911   1.517       .  S
C1911      F1915   1.385       .  S
C1911      F1916   1.383       .  S
C1911      F1917   1.383       .  S
C1914      F1918   1.383       .  S
C1914      F1919   1.383       .  S
C1914      F1920   1.385       .  S
C1921      C1922   1.416       .  A
C1921      C1926   1.420       .  A
C1921      H1928   1.082       .  S
C1922      C1923   1.433       .  A
C1923      C1924   1.420       .  A
C1923      C1930   1.520       .  S
C1924      C1925   1.404       .  A
C1924      H1929   1.083       .  S
C1925      C1926   1.414       .  A
C1926      C1927   1.515       .  S
C1927      F1931   1.385       .  S
C1927      F1932   1.384       .  S
C1927      F1933   1.382       .  S
C1930      F1934   1.384       .  S
C1930      F1935   1.383       .  S
C1930      F1936   1.385       .  S
C1937      C1938   1.401       .  A
C1937      C1942   1.424       .  A
C1937      H1944   1.083       .  S
C1938      C1939   1.425   1_556  A
C1939      C1940   1.412   1_554  A
C1939      C1946   1.518       .  S
C1940      C1941   1.405       .  A
C1940      H1945   1.084   1_556  S
C1941      C1942   1.440       .  A
C1942      C1943   1.521       .  S
C1943      F1947   1.385       .  S
C1943      F1948   1.384       .  S
C1943      F1949   1.383       .  S
C1946      F1950   1.383       .  S
C1946      F1951   1.383       .  S
C1946      F1952   1.384       .  S
C1953      C1954   1.406       .  A
C1953      C1958   1.412   1_554  A
C1953      H1960   1.084       .  S
C1954      C1955   1.435   1_554  A
C1955      C1956   1.423       .  A
C1955      C1962   1.516       .  S
C1956      C1957   1.401       .  A
C1956      H1961   1.083       .  S
C1957      C1958   1.422       .  A
C1958      C1959   1.517   1_655  S
C1959      F1963   1.384       .  S
C1959      F1964   1.384       .  S
C1959      F1965   1.383   1_556  S
C1962      F1966   1.382       .  S
C1962      F1967   1.378       .  S
C1962      F1968   1.385       .  S
C1969      C1970   1.401       .  A
C1969      C1974   1.407       .  A
C1969      H1976   1.085       .  S
C1970      C1971   1.420       .  A
C1971      C1972   1.408       .  A
C1971      C1978   1.521       .  S
C1972      C1973   1.403       .  A
C1972      H1977   1.085       .  S
C1973      C1974   1.419       .  A
C1974      C1975   1.516   1_655  S
C1975      F1979   1.383       .  S
C1975      F1980   1.384       .  S
C1975      F1981   1.383       .  S
C1978      F1982   1.382       .  S
C1978      F1983   1.383       .  S
C1978      F1984   1.384       .  S
C1985      C1986   1.417   1_455  A
C1985      C1990   1.426       .  A
C1985      H1992   1.082   1_455  S
C1986      C1987   1.424       .  A
C1987      C1988   1.402   1_655  A
C1987      C1994   1.521       .  S
C1988      C1989   1.403       .  A
C1988      H1993   1.085       .  S
C1989      C1990   1.417       .  A
C1990      C1991   1.514       .  S
C1991      F1995   1.385       .  S
C1991      F1996   1.383       .  S
C1991      F1997   1.383       .  S
C1994      F1998   1.372       .  S
C1994      F1999   1.384       .  S
C1994      F2000   1.384       .  S
C2001      C2002   1.409       .  A
C2001      C2006   1.416       .  A
C2001      H2008   1.082   1_554  S
C2002      C2003   1.417       .  A
C2003      C2004   1.406       .  A
C2003      C2010   1.519       .  S
C2004      C2005   1.406       .  A
C2004      H2009   1.084       .  S
C2005      C2006   1.415       .  A
C2006      C2007   1.515   1_554  S
C2007      F2011   1.385       .  S
C2007      F2012   1.383       .  S
C2007      F2013   1.383       .  S
C2010      F2014   1.383       .  S
C2010      F2015   1.381       .  S
C2010      F2016   1.385       .  S
C2017      C2018   1.417       .  A
C2017      C2022   1.412       .  A
C2017      H2024   1.083       .  S
C2018      C2019   1.413   1_554  A
C2019      C2020   1.416       .  A
C2019      C2026   1.515       .  S
C2020      C2021   1.417   1_556  A
C2020      H2025   1.083       .  S
C2021      C2022   1.414       .  A
C2022      C2023   1.519       .  S
C2023      F2027   1.385       .  S
C2023      F2028   1.384       .  S
C2023      F2029   1.383       .  S
C2026      F2030   1.383   1_556  S
C2026      F2031   1.382       .  S
C2026      F2032   1.384       .  S
C2033      C2034   1.413       .  A
C2033      C2038   1.419       .  A
C2033      H2040   1.082       .  S
C2034      C2035   1.430       .  A
C2035      C2036   1.422       .  A
C2035      C2042   1.520       .  S
C2036      C2037   1.409       .  A
C2036      H2041   1.083       .  S
C2037      C2038   1.418       .  A
C2038      C2039   1.518       .  S
C2039      F2043   1.385       .  S
C2039      F2044   1.383       .  S
C2039      F2045   1.383       .  S
C2042      F2046   1.384       .  S
C2042      F2047   1.381       .  S
C2042      F2048   1.385       .  S
C2049      C2050   1.405       .  A
C2049      C2054   1.418       .  A
C2049      H2056   1.083       .  S
C2050      C2051   1.423       .  A
C2051      C2052   1.410       .  A
C2051      C2058   1.516   1_655  S
C2052      C2053   1.400       .  A
C2052      H2057   1.084       .  S
C2053      C2054   1.423       .  A
C2054      C2055   1.518       .  S
C2055      F2059   1.385       .  S
C2055      F2060   1.383       .  S
C2055      F2061   1.382       .  S
C2058      F2062   1.381       .  S
C2058      F2063   1.383       .  S
C2058      F2064   1.385       .  S
C2065      C2066   1.416       .  A
C2065      C2070   1.413       .  A
C2065      H2072   1.083       .  S
C2066      C2067   1.412   1_455  A
C2067      C2068   1.410       .  A
C2067      C2074   1.520       .  S
C2068      C2069   1.421       .  A
C2068      H2073   1.081       .  S
C2069      C2070   1.417   1_655  A
C2070      C2071   1.517       .  S
C2071      F2075   1.385       .  S
C2071      F2076   1.383   1_455  S
C2071      F2077   1.384       .  S
C2074      F2078   1.383       .  S
C2074      F2079   1.384   1_655  S
C2074      F2080   1.384       .  S
C2081      C2082   1.414   1_455  A
C2081      C2086   1.424       .  A
C2081      H2088   1.083       .  S
C2082      C2083   1.412       .  A
C2083      C2084   1.418   1_655  A
C2083      C2090   1.515       .  S
C2084      C2085   1.416       .  A
C2084      H2089   1.084       .  S
C2085      C2086   1.414       .  A
C2086      C2087   1.513       .  S
C2087      F2091   1.383       .  S
C2087      F2092   1.383       .  S
C2087      F2093   1.383       .  S
C2090      F2094   1.383       .  S
C2090      F2095   1.384       .  S
C2090      F2096   1.384       .  S
C2097      C2098   1.407       .  A
C2097      C2102   1.417       .  A
C2097      H2104   1.083       .  S
C2098      C2099   1.415       .  A
C2099      C2100   1.420       .  A
C2099      C2106   1.515       .  S
C2100      C2101   1.415       .  A
C2100      H2105   1.082       .  S
C2101      C2102   1.426       .  A
C2102      C2103   1.520       .  S
C2103      F2107   1.385       .  S
C2103      F2108   1.382       .  S
C2103      F2109   1.384       .  S
C2106      F2110   1.383       .  S
C2106      F2111   1.383       .  S
C2106      F2112   1.384       .  S
C2113      C2114   1.412       .  A
C2113      C2118   1.417       .  A
C2113      H2120   1.083       .  S
C2114      C2115   1.427       .  A
C2115      C2116   1.412       .  A
C2115      C2122   1.520       .  S
C2116      C2117   1.402       .  A
C2116      H2121   1.084       .  S
C2117      C2118   1.414       .  A
C2118      C2119   1.514       .  S
C2119      F2123   1.385       .  S
C2119      F2124   1.383       .  S
C2119      F2125   1.382       .  S
C2122      F2126   1.382       .  S
C2122      F2127   1.382       .  S
C2122      F2128   1.385       .  S
C2129      C2130   1.401       .  A
C2129      C2134   1.415       .  A
C2129      H2136   1.083       .  S
C2130      C2131   1.420       .  A
C2131      C2132   1.410       .  A
C2131      C2138   1.515       .  S
C2132      C2133   1.404       .  A
C2132      H2137   1.084       .  S
C2133      C2134   1.430       .  A
C2134      C2135   1.522       .  S
C2135      F2139   1.385       .  S
C2135      F2140   1.383       .  S
C2135      F2141   1.383       .  S
C2138      F2142   1.383       .  S
C2138      F2143   1.383       .  S
C2138      F2144   1.382       .  S
C2145      C2146   1.416       .  A
C2145      C2150   1.415       .  A
C2145      H2152   1.083       .  S
C2146      C2147   1.411       .  A
C2147      C2148   1.414       .  A
C2147      C2154   1.516       .  S
C2148      C2149   1.418       .  A
C2148      H2153   1.083       .  S
C2149      C2150   1.412       .  A
C2150      C2151   1.515       .  S
C2151      F2155   1.384       .  S
C2151      F2156   1.383       .  S
C2151      F2157   1.384       .  S
C2154      F2158   1.384       .  S
C2154      F2159   1.383       .  S
C2154      F2160   1.384       .  S
C2161      C2162   1.402       .  A
C2161      C2166   1.415       .  A
C2161      H2168   1.083       .  S
C2162      C2163   1.422       .  A
C2163      C2164   1.407       .  A
C2163      C2170   1.519       .  S
C2164      C2165   1.404       .  A
C2164      H2169   1.085       .  S
C2165      C2166   1.425       .  A
C2166      C2167   1.514       .  S
C2167      F2171   1.385       .  S
C2167      F2172   1.384       .  S
C2167      F2173   1.381       .  S
C2170      F2174   1.384       .  S
C2170      F2175   1.382       .  S
C2170      F2176   1.384       .  S
C2177      C2178   1.416       .  A
C2177      C2182   1.424       .  A
C2177      H2184   1.081       .  S
C2178      C2179   1.421       .  A
C2179      C2180   1.418       .  A
C2179      C2186   1.515       .  S
C2180      C2181   1.412       .  A
C2180      H2185   1.084       .  S
C2181      C2182   1.418       .  A
C2182      C2183   1.516       .  S
C2183      F2187   1.384       .  S
C2183      F2188   1.383       .  S
C2183      F2189   1.383       .  S
C2186      F2190   1.382       .  S
C2186      F2191   1.384       .  S
C2186      F2192   1.385       .  S
C2193      C2194   1.416       .  A
C2193      C2198   1.407       .  A
C2193      H2200   1.083       .  S
C2194      C2195   1.410       .  A
C2195      C2196   1.413       .  A
C2195      C2202   1.515       .  S
C2196      C2197   1.418       .  A
C2196      H2201   1.084       .  S
C2197      C2198   1.409       .  A
C2198      C2199   1.517       .  S
C2199      F2203   1.385       .  S
C2199      F2204   1.382       .  S
C2199      F2205   1.384       .  S
C2202      F2206   1.380       .  S
C2202      F2207   1.382       .  S
C2202      F2208   1.385       .  S
C2209      C2210   1.410       .  A
C2209      C2214   1.419       .  A
C2209      H2216   1.083       .  S
C2210      C2211   1.428       .  A
C2211      C2212   1.414       .  A
C2211      C2218   1.515       .  S
C2212      C2213   1.400       .  A
C2212      H2217   1.084       .  S
C2213      C2214   1.418       .  A
C2214      C2215   1.517       .  S
C2215      F2219   1.383       .  S
C2215      F2220   1.383       .  S
C2215      F2221   1.383       .  S
C2218      F2222   1.384       .  S
C2218      F2223   1.380       .  S
C2218      F2224   1.385       .  S
C2225      C2226   1.418       .  A
C2225      C2230   1.421       .  A
C2225      H2232   1.084       .  S
C2226      C2227   1.432       .  A
C2227      C2228   1.429       .  A
C2227      C2234   1.514       .  S
C2228      C2229   1.409       .  A
C2228      H2233   1.083       .  S
C2229      C2230   1.420       .  A
C2230      C2231   1.519       .  S
C2231      F2235   1.383       .  S
C2231      F2236   1.383       .  S
C2231      F2237   1.382       .  S
C2234      F2238   1.378       .  S
C2234      F2239   1.383       .  S
C2234      F2240   1.385       .  S
