geometry optimzed in LAMMPS
_audit_creation_date              2020-11-30 
_audit_creation_method            'lammps2cif' 
_symmetry_space_group_name_H-M    'P1' 
_symmetry_Int_Tables_number       1 
_symmetry_cell_setting            triclinic 
loop_ 
_symmetry_equiv_pos_as_xyz 
  x,y,z 
_cell_length_a                    26.60191118281347 
_cell_length_b                    26.668924280452508 
_cell_length_c                    19.418756245170147 
_cell_angle_alpha                 90.6064279432362 
_cell_angle_beta                  90.0948367032052 
_cell_angle_gamma                 89.33786239611767 
loop_ 
_atom_site_label 
_atom_site_type_symbol 
_atom_site_fract_x 
_atom_site_fract_y 
_atom_site_fract_z 
_atom_site_charge 
C1          C  0.72679640  0.81201531  0.30308563     0.04880
C2          C  0.73191822  0.66993681  0.35909722     0.04880
C3          C  0.76219320  0.92592909  0.45383422     0.04880
C4          C  0.79660530  0.81266767  0.11016749     0.04880
C5          C  0.79947706  0.67002523  0.05103291     0.04880
C6          C  0.76513497  0.55823011  0.20203668     0.04880
C7          C  0.82389973  0.06216449  0.38855941     0.04880
C8          C  0.94896245  0.79920295  0.11965817     0.04880
C9          C  0.07427356  0.16777474  0.15563810     0.04880
C10         C  0.19208212  0.92056794  0.40285798     0.04880
In11       In  0.01307988  0.99482971  0.27942190     1.36870
C12         C  0.05755604  0.07985863  0.28930056     0.84950
O13         O  0.95090837  0.03018364  0.22143266    -0.53500
O14         O  0.94748095  0.02001288  0.33233467    -0.44410
C15         C  0.97081085  0.91653025  0.24012700     0.77610
O16         O  0.98177215  0.95153092  0.20009759    -0.39270
C17         C  0.09369285  0.94426121  0.28039876     0.82320
O18         O  0.06259597  0.04964607  0.23932085    -0.51130
O19         O  0.06332938  0.94530098  0.33103754    -0.41220
O20         O  0.03372770  0.06404867  0.34127252    -0.47560
C21         C  0.92625240  0.03438345  0.27699528     0.92500
O22         O  0.97948765  0.92209011  0.30434418    -0.49450
O23         O  0.08112683  0.96751461  0.22625226    -0.52740
In24       In  0.99001735  0.97725096  0.02594334     1.36870
C25         C  0.95277227  0.89268985  0.01233097     0.84950
O26         O  0.91953806  0.00348451  0.07547825    -0.53500
O27         O  0.93787981  0.00952341  0.46671407    -0.44410
C28         C  0.01323610  0.05315138  0.09018897     0.77610
O29         O  0.01411501  0.01061669  0.11747744    -0.39270
C30         C  0.07558824  0.97238147  0.97877268     0.82320
O31         O  0.96889376  0.91019279  0.06905923    -0.51130
O32         O  0.03800400  0.99455235  0.44811421    -0.41220
O33         O  0.95943063  0.91814701  0.95869707    -0.47560
C34         C  0.90758176  0.01691660  0.01519469     0.92500
O35         O  0.00405427  0.05662946  0.02661067    -0.49450
O36         O  0.06521898  0.94781560  0.03242346    -0.52740
C37         C  0.19231799  0.69923913  0.24555823     0.04880
C38         C  0.33337761  0.69908429  0.19048819     0.04880
C39         C  0.19062477  0.76990152  0.43765585     0.04880
C40         C  0.33357642  0.76685437  0.49447541     0.04880
C41         C  0.08110109  0.73130256  0.09182096     0.04880
C42         C  0.44628581  0.73734580  0.33913120     0.04880
C43         C  0.57493336  0.81724508  0.29066099     0.04880
C44         C  0.33855043  0.91030372  0.00258757     0.04880
In45       In  0.52090761  0.00425827  0.14612543     1.36870
C46         C  0.55352035  0.91660775  0.16270148     0.84950
O47         O  0.44853954  0.97550923  0.18044300    -0.53500
O48         O  0.47262455  0.96873789  0.07361747    -0.44410
C49         C  0.47808581  0.08763018  0.14052197     0.77610
O50         O  0.48973684  0.06546835  0.19604625    -0.39270
C51         C  0.60737630  0.04501047  0.15597572     0.82320
O52         O  0.53271106  0.94216682  0.21050216    -0.51130
O53         O  0.57787432  0.04984833  0.10583252    -0.41220
O54         O  0.56001002  0.93716884  0.10449025    -0.47560
C55         C  0.44087425  0.95901660  0.11996012     0.92500
O56         O  0.48848593  0.06578882  0.08376272    -0.49450
O57         O  0.59046565  0.02261985  0.20786112    -0.52740
C58         C  0.69418164  0.05805702  0.02200563     0.04880
In59       In  0.51594032  0.00179045  0.38918990     1.36870
C60         C  0.58951970  0.94338168  0.36338656     0.84950
O61         O  0.56247931  0.06427782  0.35810735    -0.53500
O62         O  0.53100637  0.06241234  0.46046509    -0.44410
C63         C  0.43854789  0.03951916  0.33295088     0.77610
O64         O  0.46551812  0.00743741  0.30160378    -0.39270
C65         C  0.46190893  0.95018761  0.45512353     0.82320
O66         O  0.57344387  0.97433838  0.32012650    -0.51130
O67         O  0.49615152  0.97485012  0.48445670    -0.41220
O68         O  0.57370175  0.94817601  0.42428548    -0.47560
C69         C  0.56335690  0.07939166  0.41997068     0.92500
O70         O  0.44581407  0.04439858  0.39668918    -0.49450
O71         O  0.46663396  0.93778974  0.39213775    -0.52740
C72         C  0.44661443  0.16993287  0.26827040     0.04880
C73         C  0.18621186  0.55056577  0.26355819     0.04880
C74         C  0.83273711  0.42487387  0.26635036     0.04880
C75         C  0.95030662  0.66510516  0.01936276     0.04880
C76         C  0.07475810  0.31374926  0.03566802     0.04880
In77       In  0.00156391  0.48888032  0.40066745     1.36870
C78         C  0.97280191  0.57843273  0.38747710     0.84950
O79         O  0.06986972  0.51822667  0.44831866    -0.53500
O80         O  0.06212955  0.50822500  0.33636595    -0.44410
C81         C  0.04515236  0.40905958  0.42302264     0.77610
O82         O  0.02871538  0.43716692  0.47189753    -0.39270
C83         C  0.91408823  0.44719435  0.40692218     0.82320
O84         O  0.99014855  0.55982699  0.44246539    -0.51130
O85         O  0.94907910  0.43204757  0.36826122    -0.41220
O86         O  0.96949533  0.54971818  0.33476300    -0.47560
C87         C  0.08842390  0.52187205  0.38811328     0.92500
O88         O  0.03806377  0.42193810  0.36079676    -0.49450
O89         O  0.92456124  0.48238669  0.44790180    -0.52740
In90       In  0.01701145  0.50058220  0.14600742     1.36870
C91         C  0.93783302  0.53961290  0.09624561     0.84950
O92         O  0.96835109  0.43641889  0.14768674    -0.53500
O93         O  0.00250516  0.46747256  0.24060751    -0.44410
C94         C  0.08868762  0.44464592  0.10277035     0.77610
O95         O  0.06817264  0.47705812  0.06512796    -0.39270
C96         C  0.06348010  0.57737771  0.18378357     0.82320
O97         O  0.96319920  0.50696714  0.06404268    -0.51130
O98         O  0.03093184  0.55838697  0.22191304    -0.41220
O99         O  0.94750758  0.54489346  0.15932956    -0.47560
C100        C  0.96587603  0.44642355  0.21150941     0.92500
O101        O  0.07860109  0.44700657  0.16623567    -0.49450
O102        O  0.06307520  0.56516149  0.12074465    -0.52740
C103        C  0.83044427  0.21033190  0.42966726     0.04880
C104        C  0.68902987  0.21003931  0.48518669     0.04880
C105        C  0.57727393  0.24345989  0.32963633     0.04880
C106        C  0.82967339  0.27638937  0.23651800     0.04880
C107        C  0.68864729  0.27721179  0.17639700     0.04880
C108        C  0.94298065  0.24138361  0.08583355     0.04880
C109        C  0.69044875  0.42740381  0.14222632     0.04880
C110        C  0.58199924  0.66246542  0.37180263     0.04880
C111        C  0.33502450  0.54830870  0.16626683     0.04880
C112        C  0.44186959  0.31042062  0.39140466     0.04880
In113      In  0.50149225  0.48209183  0.02477994     1.36870
C114        C  0.54219062  0.56391903  0.49770729     0.84950
O115        O  0.43516539  0.51411998  0.97284928    -0.53500
O116        O  0.44356248  0.51213191  0.08479359    -0.44410
C117        C  0.46214741  0.39483081  0.52873989     0.77610
O118        O  0.45327667  0.42658350  0.48288003    -0.39270
C119        C  0.59063882  0.44844581  0.02251732     0.82320
O120        O  0.52771561  0.53438841  0.45024864    -0.51130
O121        O  0.56955802  0.46614371  0.07618608    -0.41220
O122        O  0.53285424  0.55218586  0.06366824    -0.47560
C123        C  0.41712724  0.52315330  0.03224644     0.92500
O124        O  0.48592008  0.41116055  0.08250314    -0.49450
O125        O  0.56469825  0.44590210  0.96740050    -0.52740
In126      In  0.52257462  0.49413406  0.26622540     1.36870
C127        C  0.60025104  0.54324365  0.28974759     0.84950
O128        O  0.57112306  0.42950481  0.28528168    -0.53500
O129        O  0.53078713  0.43665811  0.18955693    -0.44410
C130        C  0.46782457  0.44037875  0.32808471     0.77610
O131        O  0.48802077  0.47689712  0.35869514    -0.39270
C132        C  0.46711894  0.56511269  0.22550267     0.82320
O133        O  0.58166544  0.51561947  0.33524150    -0.51130
O134        O  0.49812235  0.54343005  0.18613365    -0.41220
O135        O  0.58519735  0.53785201  0.22838381    -0.47560
C136        C  0.56565742  0.41607058  0.22323614     0.92500
O137        O  0.45965712  0.44303166  0.26389587    -0.49450
O138        O  0.47101211  0.55663309  0.28923598    -0.52740
C139        C  0.29688070  0.16285879  0.30656507     0.04880
C140        C  0.29202927  0.30422557  0.36628017     0.04880
C141        C  0.26580976  0.05063686  0.45824525     0.04880
C142        C  0.22786776  0.15932539  0.11279390     0.04880
C143        C  0.22543487  0.30455618  0.06251534     0.04880
C144        C  0.26028767  0.41693413  0.21543285     0.04880
C145        C  0.24446905  0.38197872  0.15609145    -0.05910
C146        C  0.23609680  0.34734642  0.11405142    -0.07470
C147        C  0.24628984  0.20940611  0.09199914    -0.05910
C148        C  0.24576681  0.25468786  0.08283699    -0.07470
C149        C  0.23971090  0.11709722  0.05898286    -0.05910
C150        C  0.25163200  0.08392179  0.01520468    -0.07470
C151        C  0.26873844  0.31470673  0.43544783    -0.05910
C152        C  0.24854601  0.31457225  0.49228527    -0.07470
C153        C  0.27573073  0.38210552  0.27431180    -0.05910
C154        C  0.28308332  0.34759684  0.31608316    -0.07470
C155        C  0.27337941  0.15020942  0.23792191    -0.05910
C156        C  0.25251212  0.14903699  0.18127924    -0.07470
C157        C  0.29142474  0.12001648  0.35895574    -0.05910
C158        C  0.28478433  0.08605287  0.40190662    -0.07470
C159        C  0.27173573  0.25559554  0.34224712    -0.05910
C160        C  0.27329251  0.21071216  0.32972639    -0.07470
C161        C  0.44265177  0.31950423  0.46567519    -0.05910
C162        C  0.44779446  0.34496027  0.51608426    -0.07470
C163        C  0.47128754  0.39290670  0.36026817    -0.09070
C164        C  0.43668950  0.35877394  0.35314572    -0.24240
H165        H  0.50401340  0.38609674  0.39256477     0.19960
H166        H  0.40483970  0.36686918  0.31932937     0.20530
C167        C  0.34707658  0.29296154  0.37336168    -0.05910
C168        C  0.39275463  0.28681430  0.37759480    -0.07470
C169        C  0.36856618  0.54219782  0.04322405    -0.05910
C170        C  0.34299501  0.54859887  0.09258671    -0.07470
C171        C  0.42019423  0.58136545  0.19730747    -0.09070
C172        C  0.38389259  0.54709293  0.20423349    -0.24240
H173        H  0.41825588  0.61080125  0.15917240     0.19960
H174        H  0.39048943  0.51606962  0.23960498     0.20530
C175        C  0.31130637  0.49847787  0.18171528    -0.05910
C176        C  0.29824119  0.45485018  0.19315813    -0.07470
C177        C  0.58635580  0.62602295  0.31299311    -0.09070
C178        C  0.62124829  0.58911181  0.31215183    -0.24240
H179        H  0.55621326  0.62552719  0.27471585     0.19960
H180        H  0.64955359  0.58690789  0.35228212     0.20530
C181        C  0.57875806  0.63649104  0.43616895    -0.05910
C182        C  0.56619452  0.60788528  0.47890091    -0.07470
C183        C  0.64659601  0.42936162  0.18935048    -0.09070
C184        C  0.60807817  0.39715638  0.18671431    -0.24240
H185        H  0.64609913  0.45902258  0.22855727     0.19960
H186        H  0.60436057  0.36895592  0.14636457     0.20530
C187        C  0.67314241  0.42795789  0.07104991    -0.05910
C188        C  0.64133496  0.43298505  0.02814259    -0.07470
C189        C  0.71102433  0.37602580  0.15569499    -0.05910
C190        C  0.70222773  0.33130641  0.16519438    -0.07470
C191        C  0.87290496  0.26817776  0.18510383    -0.05910
C192        C  0.90724028  0.26009501  0.14266494    -0.07470
C193        C  0.73684627  0.25488336  0.19992744    -0.05910
C194        C  0.78160296  0.25440576  0.21334398    -0.07470
C195        C  0.53738502  0.27872643  0.35723525    -0.05910
C196        C  0.49303016  0.28903920  0.37210197    -0.07470
C197        C  0.64569514  0.27076531  0.22900408    -0.05910
C198        C  0.61189095  0.26241843  0.27203380    -0.07470
C199        C  0.67562362  0.23198053  0.05176981    -0.05910
C200        C  0.67643149  0.25273021  0.10850627    -0.07470
C201        C  0.61250553  0.22571620  0.38815113    -0.05910
C202        C  0.64639560  0.21793056  0.43181891    -0.07470
C203        C  0.84157349  0.25453188  0.30567051    -0.05910
C204        C  0.84225358  0.23502844  0.36263997    -0.07470
C205        C  0.87415914  0.21519710  0.48336967    -0.05910
C206        C  0.90830699  0.22140433  0.02696052    -0.07470
C207        C  0.73735859  0.23231219  0.46444380    -0.05910
C208        C  0.78247203  0.23289315  0.45372206    -0.07470
C209        C  0.06852702  0.36421660  0.43981351    -0.05910
C210        C  0.07660001  0.33586051  0.48464772    -0.07470
C211        C  0.07320015  0.36121655  0.07744820    -0.09070
C212        C  0.10647976  0.39850188  0.07220977    -0.24240
H213        H  0.04191858  0.36628025  0.11341404     0.19960
H214        H  0.13611208  0.39792298  0.03383144     0.20530
C215        C  0.12431239  0.29079625  0.05255937    -0.05910
C216        C  0.17003018  0.29548249  0.05728021    -0.07470
C217        C  0.98017530  0.27805371  0.05863985    -0.05910
C218        C  0.02405939  0.29056650  0.04705512    -0.07470
C219        C  0.95090404  0.65747917  0.43844520    -0.05910
C220        C  0.95663843  0.62902629  0.39095372    -0.07470
C221        C  0.95047053  0.62050615  0.06456944    -0.09070
C222        C  0.91869964  0.58182130  0.05950083    -0.24240
H223        H  0.97904347  0.61954081  0.10516159     0.19960
H224        H  0.89137166  0.57822259  0.01823186     0.20530
C225        C  0.91812968  0.45097197  0.24361572    -0.09070
C226        C  0.88244933  0.41886424  0.23119627    -0.24240
H227        H  0.91134512  0.48342693  0.27663747     0.19960
H228        H  0.89053034  0.38791206  0.19543992     0.20530
C229        C  0.83953270  0.42618825  0.34118993    -0.05910
C230        C  0.86450731  0.43227395  0.39179165    -0.07470
C231        C  0.81648992  0.33082643  0.24412103    -0.05910
C232        C  0.80930303  0.37613925  0.25027592    -0.07470
C233        C  0.14452706  0.55533026  0.21249288    -0.09070
C234        C  0.10912727  0.59175819  0.21584198    -0.24240
H235        H  0.14166375  0.52640620  0.17252863     0.19960
H236        H  0.10811926  0.61876792  0.25801819     0.20530
C237        C  0.16638696  0.54849548  0.33244615    -0.05910
C238        C  0.13657941  0.54004714  0.37594560    -0.07470
C239        C  0.20946589  0.49950530  0.25093754    -0.05910
C240        C  0.22234166  0.45554351  0.23868991    -0.07470
C241        C  0.35086093  0.17740442  0.29719578    -0.05910
C242        C  0.39536643  0.18757390  0.28831617    -0.07470
C243        C  0.49608000  0.19484399  0.28524944    -0.05910
C244        C  0.53966838  0.20693643  0.30085166    -0.07470
C245        C  0.41977467  0.08227047  0.29700490    -0.09070
C246        C  0.45049391  0.12167635  0.30548177    -0.24240
H247        H  0.39124140  0.08007239  0.25710632     0.19960
H248        H  0.48036682  0.11886927  0.34403549     0.20530
C249        C  0.64560642  0.06162178  0.44841495    -0.09070
C250        C  0.60886645  0.09679658  0.44947177    -0.24240
H251        H  0.64409196  0.03148777  0.40999716     0.19960
H252        H  0.60685122  0.12498888  0.49007902     0.20530
C253        C  0.71140410  0.10913496  0.00277515    -0.05910
C254        C  0.70128445  0.15372349  0.99278860    -0.07470
C255        C  0.45567474  0.13547304  0.14600549    -0.05910
C256        C  0.44614021  0.16184632  0.19416640    -0.07470
C257        C  0.68547388  0.05965413  0.09655410    -0.05910
C258        C  0.65839019  0.05725932  0.14565913    -0.07470
C259        C  0.36866422  0.91552047  0.06329743    -0.05910
C260        C  0.39878845  0.93120376  0.10246399    -0.07470
C261        C  0.38303221  0.91407748  0.48372612    -0.09070
C262        C  0.41405511  0.95170389  0.48654581    -0.24240
H263        H  0.39366019  0.88137127  0.45246278     0.19960
H264        H  0.40505960  0.98524026  0.51662050     0.20530
C265        C  0.30076094  0.01151168  0.48790376    -0.05910
C266        C  0.31093171  0.96737672  0.50352048    -0.07470
C267        C  0.57612561  0.85952046  0.34191461    -0.09070
C268        C  0.60960756  0.89678823  0.33886668    -0.24240
H269        H  0.54556877  0.86250022  0.37933593     0.19960
H270        H  0.63827648  0.89720643  0.29917472     0.20530
C271        C  0.57229213  0.83688943  0.22151279    -0.05910
C272        C  0.56789079  0.86712830  0.17729383    -0.07470
C273        C  0.48664827  0.70049850  0.35903096    -0.05910
C274        C  0.53116144  0.68744558  0.36597399    -0.07470
C275        C  0.48247080  0.77653202  0.31537741    -0.05910
C276        C  0.52541900  0.79141000  0.30240041    -0.07470
C277        C  0.04399021  0.69792248  0.05536358    -0.05910
C278        C  0.00083144  0.68841120  0.03476385    -0.07470
C279        C  0.31755378  0.81817315  0.01183536    -0.05910
C280        C  0.31033402  0.86384890  0.01407593    -0.07470
C281        C  0.41147347  0.75172638  0.39976886    -0.05910
C282        C  0.37705238  0.75868527  0.44277763    -0.07470
C283        C  0.11482992  0.75447382  0.03651787    -0.05910
C284        C  0.14891988  0.76325460  0.49179423    -0.07470
C285        C  0.23971786  0.74841248  0.45918802    -0.05910
C286        C  0.28479117  0.74699073  0.47046451    -0.07470
C287        C  0.34319912  0.73876337  0.06350347    -0.05910
C288        C  0.34367853  0.71896820  0.12015678    -0.07470
C289        C  0.32160067  0.64418173  0.18733470    -0.05910
C290        C  0.31423148  0.59882934  0.18346542    -0.07470
C291        C  0.37684720  0.71011457  0.24002155    -0.05910
C292        C  0.41137153  0.72007370  0.28107441    -0.07470
C293        C  0.17902938  0.72358039  0.31348025    -0.05910
C294        C  0.17840110  0.74503398  0.36984940    -0.07470
C295        C  0.20619420  0.64507063  0.25523613    -0.05910
C296        C  0.21202362  0.59944044  0.25901441    -0.07470
C297        C  0.11687288  0.71088171  0.14708442    -0.05910
C298        C  0.15034347  0.70488339  0.19144965    -0.07470
C299        C  0.28508463  0.72185358  0.21233017    -0.05910
C300        C  0.24017680  0.72157070  0.22377726    -0.07470
C301        C  0.14210284  0.92371320  0.28981373    -0.05910
C302        C  0.17386851  0.91824051  0.33240067    -0.07470
C303        C  0.12053929  0.96901535  0.44639738    -0.08510
C304        C  0.14837028  0.92762378  0.45002601    -0.24240
H305        H  0.12880545  0.99837574  0.40981103     0.19960
H306        H  0.13757334  0.89824787  0.48566087     0.20530
C307        C  0.21049940  0.86897180  0.41820642    -0.05910
C308        C  0.20223008  0.82426089  0.42704855    -0.07470
C309        C  0.22116046  0.96833056  0.41127368    -0.05910
C310        C  0.23217672  0.01219476  0.42616978    -0.07470
C311        C  0.07116812  0.13071962  0.27837689    -0.05910
C312        C  0.07494937  0.15887448  0.23055821    -0.07470
C313        C  0.06517823  0.11926069  0.11999442    -0.09070
C314        C  0.02233221  0.09585210  0.12989087    -0.24240
H315        H  0.09172909  0.10390117  0.08209947     0.19960
H316        H  0.99471159  0.10805329  0.16784548     0.20530
C317        C  0.12731268  0.17918441  0.13416993    -0.05910
C318        C  0.17207996  0.16905277  0.12293405    -0.07470
C319        C  0.98357935  0.20824746  0.11691367    -0.05910
C320        C  0.02734248  0.19769400  0.13582306    -0.07470
C321        C  0.95659796  0.81117495  0.04398290    -0.09070
C322        C  0.92881716  0.84497285  0.01145888    -0.24240
H323        H  0.99434246  0.80619705  0.02275223     0.19960
H324        H  0.88914313  0.84824528  0.02215239     0.20530
C325        C  0.95065814  0.84090031  0.16669551    -0.05910
C326        C  0.95411894  0.87232375  0.21004620    -0.07470
C327        C  0.99661470  0.77238070  0.13891107    -0.05910
C328        C  0.04154512  0.76239689  0.12790202    -0.07470
C329        C  0.84246253  0.06116982  0.31827852    -0.05910
C330        C  0.87640204  0.05285905  0.27969488    -0.07470
C331        C  0.86715342  0.06740255  0.43498119    -0.09070
C332        C  0.86554747  0.05167665  0.49991749    -0.24240
H333        H  0.90294083  0.07931301  0.41337672     0.19960
H334        H  0.82948188  0.03967947  0.02619303     0.20530
C335        C  0.80287167  0.11332697  0.40167955    -0.05910
C336        C  0.81451091  0.15725905  0.41435818    -0.07470
C337        C  0.72908023  0.52018585  0.17259265    -0.05910
C338        C  0.71652338  0.47688960  0.15601377    -0.07470
C339        C  0.81230527  0.47556699  0.24484446    -0.05910
C340        C  0.80115372  0.51922194  0.22896850    -0.07470
C341        C  0.85431918  0.68127781  0.04147086    -0.05910
C342        C  0.89971800  0.68747541  0.03357233    -0.07470
C343        C  0.78360670  0.59326459  0.14509462    -0.05910
C344        C  0.79161370  0.62738476  0.10294835    -0.07470
C345        C  0.89521779  0.78494662  0.12840789    -0.05910
C346        C  0.85063379  0.79806310  0.12433300    -0.07470
C347        C  0.77637534  0.76409697  0.08537541    -0.05910
C348        C  0.77776691  0.71903837  0.07358259    -0.07470
C349        C  0.72516425  0.96445325  0.48104911    -0.05910
C350        C  0.71168572  0.00859457  0.49207922    -0.07470
C351        C  0.79550327  0.96537327  0.42146713    -0.05910
C352        C  0.80363576  0.00934162  0.40255265    -0.07470
C353        C  0.78385711  0.88965535  0.01209188    -0.05910
C354        C  0.79086889  0.85588388  0.05643913    -0.07470
C355        C  0.75649677  0.65855489  0.42703704    -0.05910
C356        C  0.77711019  0.65846933  0.48371660    -0.07470
C357        C  0.63140831  0.68768719  0.37322930    -0.05910
C358        C  0.67718100  0.68176055  0.36981344    -0.07470
C359        C  0.73991922  0.62715096  0.30548230    -0.05910
C360        C  0.74729258  0.59319363  0.26136146    -0.07470
C361        C  0.77017231  0.82404676  0.17729543    -0.05910
C362        C  0.74897504  0.82340195  0.23362418    -0.07470
C363        C  0.67176782  0.79987536  0.29731963    -0.05910
C364        C  0.62596419  0.79381131  0.29583098    -0.07470
C365        C  0.73542521  0.85514162  0.35507362    -0.05910
C366        C  0.74354483  0.88969102  0.39744814    -0.07470
C367        C  0.74967348  0.76369850  0.32475894    -0.05910
C368        C  0.75153215  0.71887996  0.33651695    -0.07470
C369        C  0.72673509  0.81166086  0.80232656     0.04880
C370        C  0.72933321  0.67072453  0.85939009     0.04880
C371        C  0.76321873  0.92474328  0.95428941     0.04880
C372        C  0.79694153  0.81372290  0.60998109     0.04880
C373        C  0.80075943  0.67026685  0.55225806     0.04880
C374        C  0.76248996  0.55934417  0.70290812     0.04880
C375        C  0.82430552  0.06032994  0.88809264     0.04880
C376        C  0.94978126  0.80059978  0.61842485     0.04880
C377        C  0.07314965  0.16792195  0.65877444     0.04880
C378        C  0.19436293  0.92127214  0.90516606     0.04880
In379      In  0.01423135  0.99461587  0.78148863     1.36870
C380        C  0.05811907  0.08001350  0.79275041     0.84950
O381        O  0.95253044  0.02957150  0.72217151    -0.53500
O382        O  0.94848615  0.02008431  0.83323277    -0.44410
C383        C  0.97218381  0.91645730  0.74128451     0.77610
O384        O  0.98325248  0.95165151  0.70163764    -0.39270
C385        C  0.09479104  0.94424317  0.78344893     0.82320
O386        O  0.06498017  0.04944951  0.74356130    -0.51130
O387        O  0.06427766  0.94523424  0.83396698    -0.41220
O388        O  0.03294675  0.06430493  0.84351662    -0.47560
C389        C  0.92762314  0.03419724  0.77752001     0.92500
O390        O  0.98053204  0.92175512  0.80563560    -0.49450
O391        O  0.08239867  0.96741147  0.72915211    -0.52740
In392      In  0.98853454  0.97786852  0.52732628     1.36870
C393        C  0.94787718  0.89471518  0.51225987     0.84950
O394        O  0.91857808  0.00637324  0.57562892    -0.53500
O395        O  0.93593085  0.00378614  0.96545217    -0.44410
C396        C  0.01592125  0.05164416  0.59289541     0.77610
O397        O  0.01816632  0.00843031  0.61823326    -0.39270
C398        C  0.07267594  0.97017583  0.47729333     0.82320
O399        O  0.95731273  0.91451082  0.57035960    -0.51130
O400        O  0.04092866  0.99629996  0.94894292    -0.41220
O401        O  0.96108828  0.91784598  0.45898592    -0.47560
C402        C  0.90837173  0.02163212  0.51562819     0.92500
O403        O  0.00462154  0.05657888  0.53024407    -0.49450
O404        O  0.06285375  0.94606729  0.53166358    -0.52740
C405        C  0.19192062  0.69984696  0.74571401     0.04880
C406        C  0.33255933  0.69966603  0.68829086     0.04880
C407        C  0.18960461  0.76988574  0.93840115     0.04880
C408        C  0.33148505  0.76441231  0.99709420     0.04880
C409        C  0.08169852  0.73207344  0.59059429     0.04880
C410        C  0.44413073  0.73400568  0.84019404     0.04880
C411        C  0.57565301  0.80469886  0.78020992     0.04880
C412        C  0.33462330  0.91744796  0.52307474     0.04880
In413      In  0.50553987  0.98805333  0.64821729     1.36870
C414        C  0.54302450  0.90197192  0.65718513     0.84950
O415        O  0.43301342  0.97585319  0.70564089    -0.53500
O416        O  0.44984610  0.94121630  0.60821690    -0.44410
C417        C  0.47344532  0.07782366  0.64213317     0.77610
O418        O  0.49440625  0.05910797  0.69445368    -0.39270
C419        C  0.59074048  0.02256689  0.62877150     0.82320
O420        O  0.53056009  0.92836433  0.70952019    -0.51130
O421        O  0.56210983  0.00992377  0.57908818    -0.41220
O422        O  0.53685992  0.92054950  0.59773120    -0.47560
C423        C  0.41885966  0.94842720  0.65605384     0.92500
O424        O  0.46874843  0.04993657  0.58890795    -0.49450
O425        O  0.57625598  0.01530669  0.69031546    -0.52740
C426        C  0.68622195  0.05924369  0.50155020     0.04880
In427      In  0.50045584  0.98911521  0.88779927     1.36870
C428        C  0.56798023  0.93017890  0.85018757     0.84950
O429        O  0.55676407  0.04363087  0.90978025    -0.53500
O430        O  0.53563657  0.98603712  0.98277285    -0.44410
C431        C  0.44557650  0.05542897  0.84570757     0.77610
O432        O  0.46991434  0.02609889  0.80690285    -0.39270
C433        C  0.42318661  0.93887317  0.88385005     0.82320
O434        O  0.56263221  0.97147771  0.81912798    -0.51130
O435        O  0.43921814  0.96045393  0.93828270    -0.41220
O436        O  0.53978570  0.92202057  0.90127480    -0.47560
C437        C  0.56723863  0.01716741  0.96206708     0.92500
O438        O  0.45141311  0.05241921  0.91042309    -0.49450
O439        O  0.45079291  0.93846093  0.83106503    -0.52740
C440        C  0.44817176  0.17702922  0.76382516     0.04880
C441        C  0.18587225  0.55104140  0.75860689     0.04880
C442        C  0.82765891  0.42562430  0.77205199     0.04880
C443        C  0.95144207  0.66773920  0.51256380     0.04880
C444        C  0.07599458  0.31463828  0.55196757     0.04880
In445      In  0.00167576  0.47918907  0.90156447     1.36870
C446        C  0.97077287  0.56900208  0.89734649     0.84950
O447        O  0.07161028  0.50899495  0.94334677    -0.53500
O448        O  0.05819742  0.50377391  0.83259573    -0.44410
C449        C  0.04515668  0.39670644  0.90636091     0.77610
O450        O  0.03318264  0.42194804  0.96028000    -0.39270
C451        C  0.91401350  0.43926634  0.90921962     0.82320
O452        O  0.98791754  0.54844380  0.95114736    -0.51130
O453        O  0.94573733  0.42892190  0.86314742    -0.41220
O454        O  0.96777407  0.54241915  0.84287807    -0.47560
C455        C  0.08657024  0.51639730  0.88235633     0.92500
O456        O  0.03426662  0.41437359  0.84755750    -0.49450
O457        O  0.92890647  0.46682042  0.95802052    -0.52740
In458      In  0.01552086  0.50204751  0.64592922     1.36870
C459        C  0.94025748  0.54005794  0.58470671     0.84950
O460        O  0.96280721  0.44096904  0.65221468    -0.53500
O461        O  0.99166839  0.48166181  0.74152214    -0.44410
C462        C  0.08748680  0.43953804  0.62598424     0.77610
O463        O  0.07416421  0.47020799  0.58041982    -0.39270
C464        C  0.06516732  0.57807452  0.67613076     0.82320
O465        O  0.96831264  0.50745130  0.55638009    -0.51130
O466        O  0.03179249  0.56283266  0.71629909    -0.41220
O467        O  0.94608482  0.54671377  0.64835649    -0.47560
C468        C  0.95737868  0.45647781  0.71387612     0.92500
O469        O  0.06890450  0.44563068  0.68518124    -0.49450
O470        O  0.06412845  0.56272295  0.61439883    -0.52740
C471        C  0.83013479  0.20845796  0.92991466     0.04880
C472        C  0.68795258  0.20834106  0.98326168     0.04880
C473        C  0.57766356  0.24749823  0.82832929     0.04880
C474        C  0.82935649  0.27667856  0.73852697     0.04880
C475        C  0.68917971  0.28043771  0.67694833     0.04880
C476        C  0.94245165  0.24152553  0.58775416     0.04880
C477        C  0.69034209  0.42931167  0.63723579     0.04880
C478        C  0.58010574  0.66187923  0.87737284     0.04880
C479        C  0.33528396  0.54869344  0.66622886     0.04880
C480        C  0.44184725  0.31124936  0.89527142     0.04880
In481      In  0.50330733  0.48113987  0.52234309     1.36870
C482        C  0.54194937  0.56431648  0.00197839     0.84950
O483        O  0.43651251  0.51330534  0.47312237    -0.53500
O484        O  0.44637894  0.51086970  0.58503219    -0.44410
C485        C  0.46016104  0.39629819  0.03193061     0.77610
O486        O  0.45321593  0.42702200  0.98420615    -0.39270
C487        C  0.59275257  0.44871220  0.51702397     0.82320
O488        O  0.52792265  0.53530385  0.95360444    -0.51130
O489        O  0.57233754  0.46636819  0.57122346    -0.41220
O490        O  0.53446261  0.55198580  0.55997636    -0.47560
C491        C  0.41936732  0.52217277  0.53302153     0.92500
O492        O  0.49020708  0.40854586  0.57750667    -0.49450
O493        O  0.56596550  0.44577967  0.46269073    -0.52740
In494      In  0.52323397  0.49427091  0.76558588     1.36870
C495        C  0.60084413  0.54260505  0.79335946     0.84950
O496        O  0.57055725  0.42781046  0.77935405    -0.53500
O497        O  0.53023930  0.43964562  0.68482402    -0.44410
C498        C  0.46991349  0.44039602  0.83017190     0.77610
O499        O  0.49138684  0.47659156  0.85976067    -0.39270
C500        C  0.46700724  0.56554718  0.72640078     0.82320
O501        O  0.58218588  0.51331826  0.83665297    -0.51130
O502        O  0.49881649  0.54547168  0.68661199    -0.41220
O503        O  0.58630733  0.53903075  0.73157146    -0.47560
C504        C  0.56467775  0.41682039  0.71660339     0.92500
O505        O  0.46024782  0.44316619  0.76638334    -0.49450
O506        O  0.47054767  0.55553254  0.78969006    -0.52740
C507        C  0.29878744  0.16512129  0.80407112     0.04880
C508        C  0.29187469  0.30529912  0.86751599     0.04880
C509        C  0.27253416  0.05010357  0.95581988     0.04880
C510        C  0.22551035  0.16052439  0.61421989     0.04880
C511        C  0.22666727  0.30411040  0.56190001     0.04880
C512        C  0.26071555  0.41707319  0.71478109     0.04880
C513        C  0.24548021  0.38175976  0.65541871    -0.05910
C514        C  0.23728032  0.34705720  0.61334700    -0.07470
C515        C  0.24567708  0.20946498  0.59233246    -0.05910
C516        C  0.24693131  0.25453569  0.58258169    -0.07470
C517        C  0.23462859  0.11805826  0.56048860    -0.05910
C518        C  0.24454552  0.08479234  0.51631765    -0.07470
C519        C  0.26794864  0.31566733  0.93635773    -0.05910
C520        C  0.24752875  0.31530046  0.99306292    -0.07470
C521        C  0.27576883  0.38265077  0.77442787    -0.05910
C522        C  0.28306844  0.34849878  0.81684314    -0.07470
C523        C  0.27320778  0.15176765  0.73731304    -0.05910
C524        C  0.25100365  0.14991447  0.68178346    -0.07470
C525        C  0.29604754  0.12138739  0.85652553    -0.05910
C526        C  0.29008901  0.08657846  0.89894770    -0.07470
C527        C  0.27204023  0.25656645  0.84312792    -0.05910
C528        C  0.27421263  0.21187829  0.82942960    -0.07470
C529        C  0.44201044  0.32055358  0.96951778    -0.05910
C530        C  0.44626600  0.34621275  0.01992504    -0.07470
C531        C  0.47261400  0.39308496  0.86287250    -0.09070
C532        C  0.43729349  0.35955106  0.85661921    -0.24240
H533        H  0.50520140  0.38604944  0.89533358     0.19960
H534        H  0.40549477  0.36796631  0.82285863     0.20530
C535        C  0.34694983  0.29424094  0.87562149    -0.05910
C536        C  0.39260020  0.28795969  0.88075842    -0.07470
C537        C  0.37106592  0.54128934  0.54468327    -0.05910
C538        C  0.34485183  0.54803390  0.59315173    -0.07470
C539        C  0.42005370  0.58210686  0.69837068    -0.09070
C540        C  0.38337648  0.54834617  0.70607830    -0.24240
H541        H  0.41848810  0.61072240  0.65905184     0.19960
H542        H  0.38936095  0.51795225  0.74264655     0.20530
C543        C  0.31168130  0.49875145  0.68145875    -0.05910
C544        C  0.29876596  0.45504519  0.69285467    -0.07470
C545        C  0.58458164  0.62461066  0.81971450    -0.09070
C546        C  0.62018088  0.58837696  0.81892063    -0.24240
H547        H  0.55448464  0.62358027  0.78138719     0.19960
H548        H  0.64835157  0.58638329  0.85927349     0.20530
C549        C  0.57885732  0.63700471  0.94252531    -0.05910
C550        C  0.56669347  0.60816557  0.98501763    -0.07470
C551        C  0.64527607  0.43122326  0.68220026    -0.09070
C552        C  0.60699571  0.39875041  0.67878832    -0.24240
H553        H  0.64395005  0.46089905  0.72135119     0.19960
H554        H  0.60381326  0.37025326  0.63874937     0.20530
C555        C  0.67496169  0.42880710  0.56516425    -0.05910
C556        C  0.64361149  0.43344934  0.52150804    -0.07470
C557        C  0.71150660  0.37867565  0.65330389    -0.05910
C558        C  0.70336049  0.33408620  0.66425920    -0.07470
C559        C  0.87239294  0.26866491  0.68686773    -0.05910
C560        C  0.90657373  0.26013023  0.64441373    -0.07470
C561        C  0.73669369  0.25728237  0.70103717    -0.05910
C562        C  0.78128528  0.25539972  0.71480822    -0.07470
C563        C  0.53758198  0.28058139  0.86045868    -0.05910
C564        C  0.49315987  0.28965624  0.87667921    -0.07470
C565        C  0.64644996  0.27593770  0.72993219    -0.05910
C566        C  0.61280886  0.26870877  0.77338644    -0.07470
C567        C  0.67653443  0.23359924  0.55362257    -0.05910
C568        C  0.67672683  0.25504035  0.60985484    -0.07470
C569        C  0.61225750  0.22579540  0.88523132    -0.05910
C570        C  0.64562433  0.21655042  0.92926913    -0.07470
C571        C  0.84120673  0.25376311  0.80689281    -0.05910
C572        C  0.84192690  0.23349297  0.86326622    -0.07470
C573        C  0.87389236  0.21350813  0.98344869    -0.05910
C574        C  0.90819586  0.22277329  0.52758066    -0.07470
C575        C  0.73663007  0.23025942  0.96316227    -0.05910
C576        C  0.78190784  0.23075362  0.95358008    -0.07470
C577        C  0.06810310  0.34984144  0.91500931    -0.05910
C578        C  0.07667905  0.32396448  0.96287786    -0.07470
C579        C  0.07667531  0.35498301  0.60626516    -0.09070
C580        C  0.10966769  0.39269914  0.60538745    -0.24240
H581        H  0.04500748  0.35733275  0.64195908     0.19960
H582        H  0.13963222  0.39319649  0.56755304     0.20530
C583        C  0.12562491  0.28913812  0.55698261    -0.05910
C584        C  0.17141546  0.29423565  0.55729078    -0.07470
C585        C  0.98061268  0.27827784  0.56326428    -0.05910
C586        C  0.02491527  0.29102139  0.55574819    -0.07470
C587        C  0.95073136  0.65009179  0.94722608    -0.05910
C588        C  0.95575447  0.61961038  0.90240227    -0.07470
C589        C  0.95368084  0.62044201  0.55212842    -0.09070
C590        C  0.92211826  0.58168731  0.54578475    -0.24240
H591        H  0.98323479  0.61778943  0.59133867     0.19960
H592        H  0.89333571  0.57892207  0.50630413     0.20530
C593        C  0.90978081  0.45801808  0.74597422    -0.09070
C594        C  0.87678380  0.42293463  0.73512411    -0.24240
H595        H  0.90168385  0.48909061  0.78101529     0.19960
H596        H  0.88641471  0.39262971  0.69901848     0.20530
C597        C  0.83607505  0.42577919  0.84675912    -0.05910
C598        C  0.86298335  0.42820454  0.89618833    -0.07470
C599        C  0.81593774  0.33095212  0.74763978    -0.05910
C600        C  0.80678784  0.37586588  0.75500757    -0.07470
C601        C  0.14664579  0.55661289  0.70406127    -0.09070
C602        C  0.11118761  0.59300296  0.70637713    -0.24240
H603        H  0.14467776  0.52771607  0.66396206     0.19960
H604        H  0.10964816  0.61966403  0.74891620     0.20530
C605        C  0.16281697  0.54799345  0.82526387    -0.05910
C606        C  0.13295792  0.53742391  0.86760113    -0.07470
C607        C  0.20941862  0.49989677  0.74779541    -0.05910
C608        C  0.22244496  0.45578556  0.73680222    -0.07470
C609        C  0.35166151  0.18279991  0.78976775    -0.05910
C610        C  0.39558236  0.19508739  0.77842786    -0.07470
C611        C  0.49691986  0.20420281  0.77400540    -0.05910
C612        C  0.54033265  0.21438691  0.79252711    -0.07470
C613        C  0.42289321  0.09705065  0.81516159    -0.09070
C614        C  0.45387317  0.13563264  0.81376259    -0.24240
H615        H  0.39348827  0.09176239  0.77700576     0.19960
H616        H  0.48521492  0.13612894  0.85066268     0.20530
C617        C  0.64515710  0.05568022  0.98493392    -0.09070
C618        C  0.61556727  0.01697955  0.99262457    -0.24240
H619        H  0.63272297  0.08570622  0.95079374     0.19960
H620        H  0.62575279  0.98611558  0.02619410     0.20530
C621        C  0.70966626  0.10970856  0.49787441    -0.05910
C622        C  0.70252271  0.15534246  0.49380145    -0.07470
C623        C  0.45517856  0.12742285  0.64861420    -0.05910
C624        C  0.44852552  0.15803455  0.69313187    -0.07470
C625        C  0.66481798  0.05646453  0.56931170    -0.05910
C626        C  0.63656412  0.04454570  0.61307092    -0.07470
C627        C  0.34432613  0.92058508  0.59709362    -0.05910
C628        C  0.36967477  0.93061525  0.64612462    -0.07470
C629        C  0.37163463  0.89223730  0.94487060    -0.09070
C630        C  0.37539833  0.91539943  0.88563490    -0.24240
H631        H  0.40314862  0.86776483  0.95964330     0.19960
H632        H  0.34411974  0.93712970  0.86509758     0.20530
C633        C  0.30858370  0.00959056  0.98188206    -0.05910
C634        C  0.31907434  0.96437675  0.99275253    -0.07470
C635        C  0.57670427  0.84531814  0.83244974    -0.09070
C636        C  0.59708283  0.88997787  0.82141079    -0.24240
H637        H  0.55602094  0.83894141  0.88010060     0.19960
H638        H  0.62022114  0.89699652  0.77660018     0.20530
C639        C  0.57100522  0.82339325  0.71077246    -0.05910
C640        C  0.56155392  0.85335214  0.66777416    -0.07470
C641        C  0.48344325  0.69710386  0.86386177    -0.05910
C642        C  0.52814439  0.68483085  0.87217008    -0.07470
C643        C  0.48204528  0.76985670  0.81165016    -0.05910
C644        C  0.52567779  0.78034051  0.79437631    -0.07470
C645        C  0.04458988  0.69948786  0.55277162    -0.05910
C646        C  0.00163150  0.69093176  0.53049608    -0.07470
C647        C  0.32153524  0.82160654  0.50428748    -0.05910
C648        C  0.31347908  0.86692801  0.51018056    -0.07470
C649        C  0.40922441  0.75131998  0.90016662    -0.05910
C650        C  0.37495091  0.75843773  0.94388736    -0.07470
C651        C  0.11599530  0.75513996  0.53602309    -0.05910
C652        C  0.14758014  0.76305015  0.99215223    -0.07470
C653        C  0.23806324  0.74712829  0.96014320    -0.05910
C654        C  0.28296313  0.74457701  0.97227785    -0.07470
C655        C  0.34406382  0.74240532  0.56262765    -0.05910
C656        C  0.34361525  0.72161347  0.61887510    -0.07470
C657        C  0.32053468  0.64485293  0.68314317    -0.05910
C658        C  0.31368281  0.59936345  0.68056780    -0.07470
C659        C  0.37537776  0.70850895  0.73956893    -0.05910
C660        C  0.40919331  0.71645495  0.78245582    -0.07470
C661        C  0.17849712  0.72442169  0.81350823    -0.05910
C662        C  0.17756024  0.74571327  0.87002131    -0.07470
C663        C  0.20600614  0.64569346  0.75579851    -0.05910
C664        C  0.21194808  0.59998631  0.75839781    -0.07470
C665        C  0.11696148  0.71133989  0.64633045    -0.05910
C666        C  0.15011589  0.70539584  0.69122313    -0.07470
C667        C  0.28440555  0.72221276  0.71098644    -0.05910
C668        C  0.23968801  0.72208846  0.72357615    -0.07470
C669        C  0.14323792  0.92397511  0.79306162    -0.05910
C670        C  0.17536624  0.91893596  0.83517701    -0.07470
C671        C  0.12386106  0.97138668  0.94886105    -0.08510
C672        C  0.15133950  0.92973000  0.95306603    -0.24240
H673        H  0.13233917  0.00033982  0.91177088     0.19960
H674        H  0.14035516  0.90076777  0.98922943     0.20530
C675        C  0.21140015  0.86899961  0.92032959    -0.05910
C676        C  0.20220419  0.82432445  0.92878410    -0.07470
C677        C  0.22456598  0.96853303  0.91220685    -0.05910
C678        C  0.23725249  0.01222926  0.92556449    -0.07470
C679        C  0.07077799  0.13112433  0.78163684    -0.05910
C680        C  0.07395984  0.15934349  0.73378831    -0.07470
C681        C  0.06618314  0.11891036  0.62349138    -0.09070
C682        C  0.02448597  0.09385077  0.63381367    -0.24240
H683        H  0.09315548  0.10452976  0.58545120     0.19960
H684        H  0.99625336  0.10559027  0.67115519     0.20530
C685        C  0.12554632  0.18125714  0.63743823    -0.05910
C686        C  0.17028758  0.17173885  0.62579325    -0.07470
C687        C  0.98194782  0.20704735  0.61855428    -0.05910
C688        C  0.02542888  0.19623843  0.63820630    -0.07470
C689        C  0.95784871  0.81388740  0.54324124    -0.09070
C690        C  0.92767414  0.84537303  0.50988216    -0.24240
H691        H  0.99679175  0.81429874  0.52535919     0.19960
H692        H  0.88761468  0.84490686  0.51806409     0.20530
C693        C  0.95203066  0.84157032  0.66651958    -0.05910
C694        C  0.95564705  0.87241243  0.71062168    -0.07470
C695        C  0.99707540  0.77306518  0.63713002    -0.05910
C696        C  0.04203171  0.76307847  0.62644043    -0.07470
C697        C  0.84374618  0.06030253  0.81828749    -0.05910
C698        C  0.87780675  0.05267213  0.77970165    -0.07470
C699        C  0.86689142  0.06474677  0.93608194    -0.09070
C700        C  0.86466457  0.04712366  0.00010625    -0.24240
H701        H  0.90300528  0.07688442  0.91579763     0.19960
H702        H  0.83054429  0.04490911  0.52687189     0.20530
C703        C  0.80313640  0.11136727  0.90150036    -0.05910
C704        C  0.81462782  0.15529685  0.91437744    -0.07470
C705        C  0.72724317  0.52221829  0.66999069    -0.05910
C706        C  0.71541386  0.47911812  0.65171424    -0.07470
C707        C  0.80506770  0.47573254  0.75172262    -0.05910
C708        C  0.79569129  0.51941100  0.73383249    -0.07470
C709        C  0.85570186  0.68123737  0.54257511    -0.05910
C710        C  0.90079976  0.68791192  0.53231484    -0.07470
C711        C  0.78370506  0.59400647  0.64713900    -0.05910
C712        C  0.79251894  0.62785002  0.60471659    -0.07470
C713        C  0.89587566  0.78660662  0.62696771    -0.05910
C714        C  0.85124871  0.79969456  0.62329500    -0.07470
C715        C  0.77721013  0.76476222  0.58541443    -0.05910
C716        C  0.77907204  0.71958003  0.57414205    -0.07470
C717        C  0.72995576  0.96444588  0.98696466    -0.05910
C718        C  0.71974568  0.00852272  0.00393982    -0.07470
C719        C  0.79568694  0.96343560  0.91886601    -0.05910
C720        C  0.80362864  0.00740620  0.89980643    -0.07470
C721        C  0.78185363  0.89147334  0.51322786    -0.05910
C722        C  0.78983051  0.85735973  0.55692687    -0.07470
C723        C  0.75429884  0.65856496  0.92663455    -0.05910
C724        C  0.77554136  0.65837826  0.98278937    -0.07470
C725        C  0.62889597  0.68837606  0.87610082    -0.05910
C726        C  0.67472217  0.68316931  0.87105341    -0.07470
C727        C  0.73628503  0.62830946  0.80524845    -0.05910
C728        C  0.74329713  0.59458629  0.76083993    -0.07470
C729        C  0.77120889  0.82458840  0.67763208    -0.05910
C730        C  0.75026177  0.82366911  0.73404757    -0.07470
C731        C  0.67278078  0.79675595  0.79215881    -0.05910
C732        C  0.62813188  0.78553206  0.78641570    -0.07470
C733        C  0.73294741  0.85493840  0.85552442    -0.05910
C734        C  0.74140286  0.88915763  0.89868954    -0.07470
C735        C  0.74985550  0.76389305  0.82514183    -0.05910
C736        C  0.75023192  0.71914640  0.83717575    -0.07470
loop_ 
_geom_bond_atom_site_label_1 
_geom_bond_atom_site_label_2 
_geom_bond_distance 
_geom_bond_site_symmetry_2 
_ccdc_geom_bond_type 
C1          C362   1.508       .  S
C1          C363   1.507       .  S
C1          C365   1.541       .  S
C1          C367   1.483       .  S
C2          C355   1.504       .  S
C2          C358   1.501       .  S
C2          C359   1.550       .  S
C2          C368   1.482       .  S
C3          C349   1.507       .  S
C3          C351   1.525       .  S
C3          C366   1.538       .  S
C3          C721   1.568       .  S
C4          C346   1.510       .  S
C4          C347   1.484       .  S
C4          C354   1.569       .  S
C4          C361   1.508       .  S
C5          C341   1.505       .  S
C5          C344   1.544       .  S
C5          C348   1.485       .  S
C5          C724   1.500   1_554  S
C6          C337   1.512       .  S
C6          C340   1.504       .  S
C6          C343   1.540       .  S
C6          C360   1.546       .  S
C7          C329   1.452       .  S
C7          C335   1.488       .  S
C7          C352   1.541       .  S
C7          C331   1.468       .  S
C8          C325   1.433       .  S
C8          C327   1.497       .  S
C8          C345   1.494       .  S
C8          C321   1.522       .  S
C9          C312   1.477       .  S
C9          C317   1.507       .  S
C9          C320   1.525       .  S
C9          C313   1.483       .  S
C10         C302   1.452       .  S
C10         C307   1.488       .  S
C10         C309   1.505       .  S
C10         C304   1.490       .  S
In11         O13   2.207   1_465  S
In11         O14   2.125   1_465  S
In11         O22   2.204   1_455  S
In11         O16   2.093   1_455  S
In11         O18   2.133   1_565  S
In11         O19   2.126       .  S
In11         O20   2.264   1_565  S
In11         O23   2.198       .  S
C12          O18   1.261       .  A
C12          O20   1.271       .  A
C12         C311   1.426       .  S
O13          C21   1.267       .  A
O14          C21   1.274       .  A
C15          O22   1.275       .  A
C15          O16   1.258       .  A
C15         C326   1.387       .  S
C17          O19   1.273       .  A
C17          O23   1.269       .  A
C17         C301   1.406       .  S
C21         C330   1.410       .  S
In24         O26   2.212   1_565  S
In24         O35   2.154   1_665  S
In24         O29   2.083   1_665  S
In24         O31   2.067       .  S
In24         O33   2.199   1_554  S
In24         O36   2.145   1_655  S
In24        O395   1.985   1_564  S
In24        O400   2.090   1_654  S
C25          O31   1.268       .  A
C25          O33   1.263   1_554  A
C25         C322   1.430       .  S
O26          C34   1.267       .  A
O27        In392   1.976   1_545  S
O27         C402   1.270       .  A
C28          O35   1.262       .  A
C28          O29   1.257       .  A
C28         C314   1.392       .  S
C30          O36   1.269   1_556  A
C30         O400   1.259       .  A
C30         C671   1.410       .  S
O32        In392   2.081   1_455  S
O32         C398   1.260       .  A
C34         O395   1.270   1_554  A
C34         C700   1.422       .  S
C37         C293   1.505       .  S
C37         C295   1.501       .  S
C37         C298   1.539       .  S
C37         C300   1.476       .  S
C38         C288   1.497       .  S
C38         C289   1.501       .  S
C38         C291   1.532       .  S
C38         C299   1.476       .  S
C39         C284   1.543       .  S
C39         C285   1.481       .  S
C39         C294   1.505       .  S
C39         C308   1.502       .  S
C40         C282   1.545       .  S
C40         C286   1.480       .  S
C40         C647   1.502       .  S
C40         C655   1.506       .  S
C41         C277   1.508       .  S
C41         C283   1.540       .  S
C41         C297   1.533       .  S
C41         C328   1.502       .  S
C42         C273   1.500       .  S
C42         C275   1.505       .  S
C42         C281   1.542       .  S
C42         C292   1.530       .  S
C43         C271   1.448       .  S
C43         C276   1.512       .  S
C43         C364   1.492       .  S
C43         C267   1.497       .  S
C44         C259   1.431       .  S
C44         C280   1.475       .  S
C44         C634   1.540   1_554  S
C44         C629   1.498   1_554  S
In45         O47   2.188   1_545  S
In45         O48   2.127   1_545  S
In45         O56   2.216       .  S
In45         O50   2.057       .  S
In45         O52   2.106   1_545  S
In45         O53   2.110       .  S
In45         O54   2.206   1_545  S
In45         O57   2.259       .  S
C46          O52   1.270       .  A
C46          O54   1.274       .  A
C46         C272   1.401       .  S
O47          C55   1.267       .  A
O48          C55   1.266       .  A
C49          O56   1.271       .  A
C49          O50   1.271       .  A
C49         C255   1.405       .  S
C51          O53   1.256       .  A
C51          O57   1.263       .  A
C51         C258   1.415       .  S
C55         C260   1.390       .  S
C58         C253   1.494       .  S
C58         C257   1.467       .  S
C58         C718   1.517       .  S
C58         C617   1.490   1_554  S
In59         O61   2.178       .  S
In59         O62   2.158       .  S
In59         O70   2.177       .  S
In59         O64   2.170       .  S
In59         O66   2.153   1_545  S
In59         O67   2.063   1_545  S
In59         O68   2.199   1_545  S
In59         O71   2.166   1_545  S
C60          O66   1.255       .  A
C60          O68   1.261       .  A
C60         C268   1.425       .  S
O61          C69   1.263       .  A
O62          C69   1.258       .  A
C63          O70   1.258       .  A
C63          O64   1.262       .  A
C63         C245   1.428       .  S
C65          O67   1.261       .  A
C65          O71   1.270       .  A
C65         C262   1.413       .  S
C69         C250   1.419       .  S
C72         C242   1.488       .  S
C72         C243   1.515       .  S
C72         C256   1.453       .  S
C72         C246   1.485       .  S
C73         C237   1.441       .  S
C73         C239   1.507       .  S
C73         C296   1.484       .  S
C73         C233   1.492       .  S
C74         C229   1.464       .  S
C74         C232   1.478       .  S
C74         C339   1.514       .  S
C74         C226   1.495       .  S
C75         C278   1.515   1_655  S
C75         C342   1.491       .  S
C75         C587   1.453   1_554  S
C75         C221   1.486       .  S
C76         C215   1.485       .  S
C76         C218   1.508       .  S
C76         C578   1.443   1_554  S
C76         C211   1.497       .  S
In77         O79   2.187       .  S
In77         O80   2.112       .  S
In77         O88   2.159       .  S
In77         O82   2.086       .  S
In77         O84   2.070   1_455  S
In77         O85   2.161   1_455  S
In77         O86   2.237   1_455  S
In77         O89   2.255   1_455  S
C78          O84   1.266       .  A
C78          O86   1.275       .  A
C78         C220   1.412       .  S
O79          C87   1.275       .  A
O80          C87   1.276       .  A
C81          O88   1.273       .  A
C81          O82   1.278       .  A
C81         C209   1.383       .  S
C83          O85   1.257       .  A
C83          O89   1.257       .  A
C83         C230   1.412       .  S
C87         C238   1.396       .  S
In90         O92   2.158   1_455  S
In90         O93   2.085       .  S
In90        O101   2.199       .  S
In90         O95   2.163       .  S
In90         O97   2.146   1_455  S
In90         O98   2.156       .  S
In90         O99   2.197   1_455  S
In90        O102   2.186       .  S
C91          O97   1.257       .  A
C91          O99   1.258       .  A
C91         C222   1.428       .  S
O92         C100   1.267       .  A
O93         C100   1.260   1_455  A
C94         O101   1.262       .  A
C94          O95   1.257       .  A
C94         C212   1.436       .  S
C96          O98   1.255       .  A
C96         O102   1.263       .  A
C96         C234   1.419       .  S
C100        C225   1.419       .  S
C103        C204   1.500       .  S
C103        C205   1.566       .  S
C103        C208   1.479       .  S
C103        C336   1.509       .  S
C104        C202   1.549       .  S
C104        C207   1.481       .  S
C104        C567   1.500       .  S
C104        C622   1.509       .  S
C105        C195   1.505       .  S
C105        C198   1.543       .  S
C105        C201   1.546       .  S
C105        C244   1.507       .  S
C106        C191   1.536       .  S
C106        C194   1.480       .  S
C106        C203   1.501       .  S
C106        C231   1.495       .  S
C107        C190   1.509       .  S
C107        C193   1.481       .  S
C107        C197   1.546       .  S
C107        C200   1.502       .  S
C108        C192   1.534       .  S
C108        C206   1.561       .  S
C108        C217   1.500       .  S
C108        C319   1.516       .  S
C109        C187   1.456       .  S
C109        C189   1.495       .  S
C109        C338   1.519       .  S
C109        C183   1.484       .  S
C110        C181   1.439       .  S
C110        C274   1.505       .  S
C110        C357   1.483       .  S
C110        C177   1.495       .  S
C111        C170   1.447       .  S
C111        C175   1.511       .  S
C111        C290   1.485       .  S
C111        C172   1.494       .  S
C112        C161   1.460       .  S
C112        C168   1.480       .  S
C112        C196   1.516       .  S
C112        C164   1.500       .  S
In113       O115   2.199   1_554  S
In113       O116   2.081       .  S
In113       O124   2.252       .  S
In113       O121   2.107       .  S
In113       O122   2.183       .  S
In113       O125   2.224   1_554  S
In113       O486   2.108   1_554  S
In113       O488   2.118   1_554  S
C114        O120   1.268       .  A
C114        O490   1.271       .  A
C114        C182   1.394       .  S
O115        C123   1.270   1_556  A
O116        C123   1.273       .  A
C117        O118   1.256       .  A
C117        O492   1.259       .  A
C117        C162   1.407       .  S
O118       In481   2.120       .  S
C119        O121   1.268       .  A
C119        O125   1.274   1_554  A
C119        C188   1.410       .  S
O120       In481   2.113       .  S
O122        C482   1.269       .  A
C123        C169   1.398       .  S
O124        C485   1.260       .  A
In126       O128   2.176       .  S
In126       O129   2.135       .  S
In126       O137   2.171       .  S
In126       O131   2.077       .  S
In126       O133   2.143       .  S
In126       O134   2.143       .  S
In126       O135   2.178       .  S
In126       O138   2.189       .  S
C127        O133   1.261       .  A
C127        O135   1.264       .  A
C127        C178   1.415       .  S
O128        C136   1.262       .  A
O129        C136   1.258       .  A
C130        O137   1.267       .  A
C130        O131   1.261       .  A
C130        C163   1.420       .  S
C132        O134   1.257       .  A
C132        O138   1.264       .  A
C132        C171   1.427       .  S
C136        C184   1.419       .  S
C139        C155   1.508       .  S
C139        C157   1.546       .  S
C139        C160   1.482       .  S
C139        C241   1.504       .  S
C140        C151   1.502       .  S
C140        C154   1.537       .  S
C140        C159   1.481       .  S
C140        C167   1.498       .  S
C141        C158   1.542       .  S
C141        C265   1.508       .  S
C141        C310   1.498       .  S
C141        C518   1.546       .  S
C142        C147   1.488       .  S
C142        C149   1.558       .  S
C142        C156   1.508       .  S
C142        C318   1.516       .  S
C143        C146   1.538       .  S
C143        C148   1.487       .  S
C143        C216   1.499       .  S
C143        C520   1.504   1_554  S
C144        C145   1.536       .  S
C144        C153   1.533       .  S
C144        C176   1.504       .  S
C144        C240   1.500       .  S
C145        C146   1.248       .  T
C147        C148   1.222       .  T
C149        C150   1.259       .  T
C150        C509   1.556   1_554  S
C151        C152   1.228       .  T
C152        C511   1.503       .  S
C153        C154   1.247       .  T
C155        C156   1.232       .  T
C157        C158   1.252       .  T
C159        C160   1.219       .  T
C161        C162   1.194       .  T
C163        C164   1.308       .  D
C163        H165   1.087       .  S
C164        H166   1.092       .  S
C167        C168   1.227       .  T
C169        C170   1.186       .  T
C171        C172   1.345       .  D
C171        H173   1.086       .  S
C172        H174   1.093       .  S
C175        C176   1.241       .  T
C177        C178   1.345       .  D
C177        H179   1.093       .  S
C178        H180   1.084       .  S
C181        C182   1.184       .  T
C183        C184   1.345       .  D
C183        H185   1.092       .  S
C184        H186   1.086       .  S
C187        C188   1.194       .  T
C189        C190   1.234       .  T
C191        C192   1.247       .  T
C193        C194   1.218       .  T
C195        C196   1.242       .  T
C197        C198   1.252       .  T
C199        C472   1.501   1_554  S
C199        C200   1.228       .  T
C201        C202   1.254       .  T
C203        C204   1.227       .  T
C205        C574   1.263       .  T
C206        C573   1.263   1_554  T
C207        C208   1.219       .  T
C209        C210   1.177       .  T
C210        C444   1.430       .  S
C211        C212   1.344       .  D
C211        H213   1.094       .  S
C212        H214   1.086       .  S
C215        C216   1.227       .  T
C217        C218   1.239   1_655  T
C219        C443   1.462       .  S
C219        C220   1.197       .  T
C221        C222   1.344       .  D
C221        H223   1.094       .  S
C222        H224   1.085       .  S
C225        C226   1.306       .  D
C225        H227   1.085       .  S
C226        H228   1.093       .  S
C229        C230   1.196       .  T
C231        C232   1.226       .  T
C233        C234   1.346       .  D
C233        H235   1.092       .  S
C234        H236   1.085       .  S
C237        C238   1.185       .  T
C239        C240   1.238       .  T
C241        C242   1.230       .  T
C243        C244   1.243       .  T
C245        C246   1.347       .  D
C245        H247   1.085       .  S
C246        H248   1.093       .  S
C249        C426   1.494       .  S
C249        C250   1.347       .  D
C249        H251   1.092       .  S
C250        H252   1.085       .  S
C253        C254   1.233   1_554  T
C254        C472   1.508       .  S
C255        C256   1.190       .  T
C257        C258   1.199       .  T
C259        C260   1.181       .  T
C261        C412   1.500       .  S
C261        C262   1.307       .  D
C261        H263   1.092       .  S
C262        H264   1.088       .  S
C265        C266   1.245   1_545  T
C266        C412   1.518       .  S
C267        C268   1.344       .  D
C267        H269   1.093       .  S
C268        H270   1.085       .  S
C271        C272   1.189       .  T
C273        C274   1.238       .  T
C275        C276   1.241       .  T
C277        C278   1.243       .  T
C279        C408   1.501   1_554  S
C279        C280   1.231       .  T
C281        C282   1.251       .  T
C283        C652   1.251   1_554  T
C284        C651   1.250       .  T
C285        C286   1.219       .  T
C287        C408   1.497   1_554  S
C287        C288   1.225       .  T
C289        C290   1.229       .  T
C291        C292   1.244       .  T
C293        C294   1.230       .  T
C295        C296   1.228       .  T
C297        C298   1.248       .  T
C299        C300   1.216       .  T
C301        C302   1.190       .  T
C303        C398   1.408       .  S
C303        C304   1.324       .  D
C303        H305   1.087       .  S
C304        H306   1.092       .  S
C307        C308   1.229       .  T
C309        C310   1.240   1_565  T
C311        C312   1.205       .  T
C313        C314   1.321       .  D
C313        H315   1.094       .  S
C314        H316   1.086   1_455  S
C317        C318   1.237       .  T
C319        C320   1.250   1_655  T
C321        C322   1.324       .  D
C321        H323   1.092       .  S
C322        H324   1.078       .  S
C325        C326   1.186       .  T
C327        C328   1.240   1_655  T
C329        C330   1.192       .  T
C331        C332   1.334       .  D
C331        H333   1.093       .  S
C332        C402   1.420       .  S
C332        H702   1.087       .  S
H334        C700   1.086       .  S
C335        C336   1.237       .  T
C337        C338   1.245       .  T
C339        C340   1.240       .  T
C341        C342   1.231       .  T
C343        C344   1.251       .  T
C345        C346   1.235       .  T
C347        C348   1.221       .  T
C349        C350   1.243   1_565  T
C350        C426   1.514       .  S
C351        C352   1.254   1_565  T
C353        C371   1.564   1_554  S
C353        C354   1.265       .  T
C355        C356   1.229       .  T
C356        C373   1.503       .  S
C357        C358   1.228       .  T
C359        C360   1.254       .  T
C361        C362   1.232       .  T
C363        C364   1.231       .  T
C365        C366   1.249       .  T
C367        C368   1.220       .  T
C369        C730   1.506       .  S
C369        C731   1.506       .  S
C369        C733   1.551       .  S
C369        C735   1.480       .  S
C370        C723   1.501       .  S
C370        C726   1.503       .  S
C370        C727   1.546       .  S
C370        C736   1.481       .  S
C371        C717   1.508       .  S
C371        C719   1.524       .  S
C371        C734   1.547       .  S
C372        C714   1.511       .  S
C372        C715   1.487       .  S
C372        C722   1.572       .  S
C372        C729   1.506       .  S
C373        C709   1.506       .  S
C373        C712   1.548       .  S
C373        C716   1.488       .  S
C374        C705   1.508       .  S
C374        C708   1.505       .  S
C374        C711   1.543       .  S
C374        C728   1.542       .  S
C375        C697   1.452       .  S
C375        C703   1.488       .  S
C375        C720   1.540       .  S
C375        C699   1.471       .  S
C376        C693   1.432       .  S
C376        C695   1.496       .  S
C376        C713   1.496       .  S
C376        C689   1.522       .  S
C377        C680   1.477       .  S
C377        C685   1.502       .  S
C377        C688   1.524       .  S
C377        C681   1.483       .  S
C378        C670   1.450       .  S
C378        C675   1.493       .  S
C378        C677   1.507       .  S
C378        C672   1.490       .  S
In379       O381   2.207   1_465  S
In379       O382   2.120   1_465  S
In379       O390   2.205   1_455  S
In379       O384   2.092   1_455  S
In379       O386   2.139   1_565  S
In379       O387   2.128       .  S
In379       O388   2.264   1_565  S
In379       O391   2.193       .  S
C380        O386   1.261       .  A
C380        O388   1.270       .  A
C380        C679   1.427       .  S
O381        C389   1.268       .  A
O382        C389   1.274       .  A
C383        O390   1.275       .  A
C383        O384   1.258       .  A
C383        C694   1.387       .  S
C385        O387   1.274       .  A
C385        O391   1.269       .  A
C385        C669   1.405       .  S
C389        C698   1.409       .  S
In392       O394   2.209   1_565  S
In392       O403   2.147   1_665  S
In392       O397   2.093   1_665  S
In392       O399   2.076       .  S
In392       O401   2.199       .  S
In392       O404   2.144   1_655  S
C393        O399   1.267       .  A
C393        O401   1.263       .  A
C393        C690   1.427       .  S
O394        C402   1.266       .  A
C396        O403   1.261       .  A
C396        O397   1.259       .  A
C396        C682   1.392       .  S
C398        O404   1.271       .  A
C405        C661   1.506       .  S
C405        C663   1.503       .  S
C405        C666   1.541       .  S
C405        C668   1.475       .  S
C406        C656   1.506       .  S
C406        C657   1.502       .  S
C406        C659   1.530       .  S
C406        C667   1.475       .  S
C407        C652   1.544       .  S
C407        C653   1.481       .  S
C407        C662   1.506       .  S
C407        C676   1.507       .  S
C408        C650   1.558       .  S
C408        C654   1.479       .  S
C409        C645   1.508       .  S
C409        C651   1.537       .  S
C409        C665   1.534       .  S
C409        C696   1.501       .  S
C410        C641   1.503       .  S
C410        C643   1.508       .  S
C410        C649   1.554       .  S
C410        C660   1.528       .  S
C411        C639   1.447       .  S
C411        C644   1.513       .  S
C411        C732   1.486       .  S
C411        C635   1.477       .  S
C412        C627   1.462       .  S
C412        C648   1.485       .  S
In413       O415   2.259       .  S
In413       O416   2.092       .  S
In413       O424   2.238   1_565  S
In413       O418   2.106   1_565  S
In413       O420   2.099       .  S
In413       O421   2.110   1_565  S
In413       O422   2.197       .  S
In413       O425   2.179   1_565  S
C414        O420   1.272       .  A
C414        O422   1.271       .  A
C414        C640   1.399       .  S
O415        C423   1.263       .  A
O416        C423   1.255       .  A
C417        O424   1.274       .  A
C417        O418   1.263       .  A
C417        C623   1.408       .  S
C419        O421   1.273       .  A
C419        O425   1.274       .  A
C419        C626   1.394       .  S
C423        C628   1.409       .  S
C426        C621   1.492       .  S
C426        C625   1.438       .  S
In427       O429   2.139   1_565  S
In427       O430   2.069       .  S
In427       O438   2.163   1_565  S
In427       O432   2.027   1_565  S
In427       O434   2.171       .  S
In427       O435   2.061       .  S
In427       O436   2.081       .  S
In427       O439   2.188       .  S
C428        O434   1.268       .  A
C428        O436   1.267       .  A
C428        C636   1.425       .  S
O429        C437   1.271       .  A
O430        C437   1.258   1_565  A
C431        O438   1.269       .  A
C431        O432   1.255       .  A
C431        C613   1.395       .  S
C433        O435   1.273       .  A
C433        O439   1.262       .  A
C433        C630   1.424       .  S
C437        C618   1.415       .  S
C440        C610   1.501       .  S
C440        C611   1.505       .  S
C440        C624   1.458       .  S
C440        C614   1.483       .  S
C441        C605   1.437       .  S
C441        C607   1.507       .  S
C441        C664   1.485       .  S
C441        C601   1.493       .  S
C442        C597   1.467       .  S
C442        C600   1.478       .  S
C442        C707   1.515       .  S
C442        C594   1.492       .  S
C443        C646   1.516   1_655  S
C443        C710   1.494       .  S
C443        C589   1.484       .  S
C444        C583   1.482       .  S
C444        C586   1.506       .  S
C444        C579   1.499       .  S
In445       O447   2.183       .  S
In445       O448   2.129       .  S
In445       O456   2.184       .  S
In445       O450   2.083       .  S
In445       O452   2.102   1_455  S
In445       O453   2.142   1_455  S
In445       O454   2.227   1_455  S
In445       O457   2.256   1_455  S
C446        O452   1.267       .  A
C446        O454   1.270       .  A
C446        C588   1.406       .  S
O447        C455   1.268       .  A
O448        C455   1.270       .  A
C449        O456   1.272       .  A
C449        O450   1.278       .  A
C449        C577   1.396       .  S
C451        O453   1.257       .  A
C451        O457   1.259       .  A
C451        C598   1.414       .  S
C455        C606   1.393       .  S
In458       O460   2.166   1_455  S
In458       O461   2.044   1_455  S
In458       O469   2.198       .  S
In458       O463   2.174       .  S
In458       O465   2.148   1_455  S
In458       O466   2.156       .  S
In458       O467   2.187   1_455  S
In458       O470   2.177       .  S
C459        O465   1.262       .  A
C459        O467   1.256       .  A
C459        C590   1.429       .  S
O460        C468   1.271       .  A
O461        C468   1.255       .  A
C462        O469   1.260       .  A
C462        O463   1.259       .  A
C462        C580   1.429       .  S
C464        O466   1.257       .  A
C464        O470   1.263       .  A
C464        C602   1.416       .  S
C468        C593   1.412       .  S
C471        C572   1.498       .  S
C471        C573   1.565       .  S
C471        C576   1.480       .  S
C471        C704   1.508       .  S
C472        C570   1.553       .  S
C472        C575   1.481       .  S
C473        C563   1.508       .  S
C473        C566   1.536       .  S
C473        C569   1.549       .  S
C473        C612   1.501       .  S
C474        C559   1.535       .  S
C474        C562   1.476       .  S
C474        C571   1.499       .  S
C474        C599   1.496       .  S
C475        C558   1.507       .  S
C475        C561   1.478       .  S
C475        C565   1.541       .  S
C475        C568   1.500       .  S
C476        C560   1.533       .  S
C476        C574   1.562       .  S
C476        C585   1.501       .  S
C476        C687   1.515       .  S
C477        C555   1.457       .  S
C477        C557   1.493       .  S
C477        C706   1.517       .  S
C477        C551   1.484       .  S
C478        C549   1.435       .  S
C478        C642   1.509       .  S
C478        C725   1.485       .  S
C478        C545   1.493       .  S
C479        C538   1.442       .  S
C479        C543   1.511       .  S
C479        C658   1.486       .  S
C479        C540   1.494       .  S
C480        C529   1.460       .  S
C480        C536   1.482       .  S
C480        C564   1.518       .  S
C480        C532   1.501       .  S
In481       O483   2.187       .  S
In481       O484   2.089       .  S
In481       O492   2.253       .  S
In481       O489   2.101       .  S
In481       O490   2.190       .  S
In481       O493   2.226       .  S
C482        O488   1.269   1_554  A
C482        C550   1.391   1_554  S
O483        C491   1.269       .  A
O484        C491   1.275       .  A
C485        O486   1.256   1_554  A
C485        C530   1.407       .  S
C487        O489   1.269       .  A
C487        O493   1.274       .  A
C487        C556   1.411       .  S
C491        C537   1.395       .  S
In494       O496   2.181       .  S
In494       O497   2.136       .  S
In494       O505   2.172       .  S
In494       O499   2.078       .  S
In494       O501   2.149       .  S
In494       O502   2.158       .  S
In494       O503   2.178       .  S
In494       O506   2.188       .  S
C495        O501   1.260       .  A
C495        O503   1.263       .  A
C495        C546   1.415       .  S
O496        C504   1.260       .  A
O497        C504   1.259       .  A
C498        O505   1.267       .  A
C498        O499   1.260       .  A
C498        C531   1.420       .  S
C500        O502   1.258       .  A
C500        O506   1.264       .  A
C500        C539   1.429       .  S
C504        C552   1.422       .  S
C507        C523   1.504       .  S
C507        C525   1.559       .  S
C507        C528   1.481       .  S
C507        C609   1.516       .  S
C508        C519   1.503       .  S
C508        C522   1.539       .  S
C508        C527   1.481       .  S
C508        C535   1.500       .  S
C509        C526   1.555       .  S
C509        C633   1.526       .  S
C509        C678   1.501       .  S
C510        C515   1.483       .  S
C510        C517   1.549       .  S
C510        C524   1.504       .  S
C510        C686   1.512       .  S
C511        C514   1.540       .  S
C511        C516   1.481       .  S
C511        C584   1.499       .  S
C512        C513   1.538       .  S
C512        C521   1.535       .  S
C512        C544   1.505       .  S
C512        C608   1.501       .  S
C513        C514   1.249       .  T
C515        C516   1.220       .  T
C517        C518   1.254       .  T
C519        C520   1.229       .  T
C521        C522   1.248       .  T
C523        C524   1.229       .  T
C525        C526   1.259       .  T
C527        C528   1.219       .  T
C529        C530   1.194   1_556  T
C531        C532   1.309       .  D
C531        H533   1.087       .  S
C532        H534   1.092       .  S
C535        C536   1.228       .  T
C537        C538   1.183       .  T
C539        C540   1.345       .  D
C539        H541   1.086       .  S
C540        H542   1.093       .  S
C543        C544   1.241       .  T
C545        C546   1.345       .  D
C545        H547   1.093       .  S
C546        H548   1.085       .  S
C549        C550   1.182       .  T
C551        C552   1.345       .  D
C551        H553   1.092       .  S
C552        H554   1.085       .  S
C555        C556   1.195       .  T
C557        C558   1.232       .  T
C559        C560   1.246       .  T
C561        C562   1.216       .  T
C563        C564   1.244       .  T
C565        C566   1.249       .  T
C567        C568   1.227       .  T
C569        C570   1.256       .  T
C571        C572   1.226       .  T
C575        C576   1.219       .  T
C577        C578   1.184       .  T
C579        C580   1.343       .  D
C579        H581   1.093       .  S
C580        H582   1.085       .  S
C583        C584   1.227       .  T
C585        C586   1.240   1_655  T
C587        C588   1.191       .  T
C589        C590   1.344       .  D
C589        H591   1.096       .  S
C590        H592   1.085       .  S
C593        C594   1.306       .  D
C593        H595   1.087       .  S
C594        H596   1.093       .  S
C597        C598   1.198       .  T
C599        C600   1.226       .  T
C601        C602   1.346       .  D
C601        H603   1.091       .  S
C602        H604   1.085       .  S
C605        C606   1.183       .  T
C607        C608   1.239       .  T
C609        C610   1.238       .  T
C611        C612   1.241       .  T
C613        C614   1.326       .  D
C613        H615   1.086       .  S
C614        H616   1.099       .  S
C617        C618   1.315       .  D
C617        H619   1.093       .  S
C618        H620   1.087   1_546  S
C621        C622   1.233       .  T
C623        C624   1.195       .  T
C625        C626   1.184       .  T
C627        C628   1.196       .  T
C629        C630   1.316       .  D
C629        H631   1.096       .  S
C630        H632   1.086       .  S
C633        C634   1.255   1_545  T
C635        C636   1.334       .  D
C635        H637   1.093       .  S
C636        H638   1.086       .  S
C639        C640   1.186       .  T
C641        C642   1.240       .  T
C643        C644   1.244       .  T
C645        C646   1.244       .  T
C647        C648   1.229       .  T
C649        C650   1.258       .  T
C653        C654   1.218       .  T
C655        C656   1.230       .  T
C657        C658   1.229       .  T
C659        C660   1.243       .  T
C661        C662   1.230       .  T
C663        C664   1.229       .  T
C665        C666   1.249       .  T
C667        C668   1.215       .  T
C669        C670   1.189       .  T
C671        C672   1.326       .  D
C671        H673   1.087   1_565  S
C672        H674   1.092       .  S
C675        C676   1.232       .  T
C677        C678   1.242   1_565  T
C679        C680   1.206       .  T
C681        C682   1.318       .  D
C681        H683   1.094       .  S
C682        H684   1.086   1_455  S
C685        C686   1.235       .  T
C687        C688   1.249   1_655  T
C689        C690   1.328       .  D
C689        H691   1.093       .  S
C690        H692   1.078       .  S
C693        C694   1.186       .  T
C695        C696   1.240   1_655  T
C697        C698   1.191       .  T
C699        C700   1.335   1_556  D
C699        H701   1.093       .  S
C703        C704   1.237       .  T
C705        C706   1.243       .  T
C707        C708   1.242       .  T
C709        C710   1.232       .  T
C711        C712   1.253       .  T
C713        C714   1.236       .  T
C715        C716   1.223       .  T
C717        C718   1.245   1_566  T
C719        C720   1.254   1_565  T
C721        C722   1.267       .  T
C723        C724   1.227       .  T
C725        C726   1.229       .  T
C727        C728   1.252       .  T
C729        C730   1.231       .  T
C731        C732   1.233       .  T
C733        C734   1.255       .  T
C735        C736   1.218       .  T
