geometry optimzed in LAMMPS
_audit_creation_date              2020-11-30 
_audit_creation_method            'lammps2cif' 
_symmetry_space_group_name_H-M    'P1' 
_symmetry_Int_Tables_number       1 
_symmetry_cell_setting            triclinic 
loop_ 
_symmetry_equiv_pos_as_xyz 
  x,y,z 
_cell_length_a                    25.2038152012411 
_cell_length_b                    26.55855339812343 
_cell_length_c                    29.559853459577525 
_cell_angle_alpha                 88.33800837893406 
_cell_angle_beta                  90.72407021684177 
_cell_angle_gamma                 90.67804453017607 
loop_ 
_atom_site_label 
_atom_site_type_symbol 
_atom_site_fract_x 
_atom_site_fract_y 
_atom_site_fract_z 
_atom_site_charge 
O1          O  0.61418501  0.55213720  0.40484545    -0.57710
C2          C  0.45540656  0.55882287  0.30981845     0.74920
O3          O  0.59200304  0.65999290  0.30576558    -0.58870
C4          C  0.60122784  0.58720731  0.43102677     0.74890
C5          C  0.62901461  0.56023336  0.26810005     0.77280
Cd6        Cd  0.56008138  0.58881930  0.34088301     1.37460
O7          O  0.47334464  0.54334324  0.34795319    -0.57710
O8          O  0.57946970  0.55163085  0.27076323    -0.56520
C9          C  0.56516838  0.68945745  0.32835725     0.77240
O10         O  0.64963380  0.58239384  0.30152884    -0.58890
O11         O  0.48448092  0.59095625  0.28958311    -0.57340
O12         O  0.56256282  0.61424898  0.41855858    -0.57330
O13         O  0.53485076  0.67074223  0.35808483    -0.56500
O14         O  0.10347835  0.52235062  0.10455330    -0.57710
C15         C  0.97950117  0.45725005  0.19623875     0.74920
O16         O  0.93645491  0.46294042  0.05640286    -0.58870
C17         C  0.11734670  0.50853328  0.06563993     0.74890
C18         C  0.05451820  0.38302706  0.09564418     0.77280
Cd19       Cd  0.01674042  0.47383674  0.10609523     1.37460
O20         O  0.99663945  0.50040097  0.18276181    -0.57710
O21         O  0.07693768  0.41345859  0.12201626    -0.56520
C22         C  0.93552501  0.50761771  0.04161888     0.77240
O23         O  0.01012957  0.39421856  0.07746799    -0.58890
O24         O  0.98225718  0.42188274  0.16899537    -0.57340
O25         O  0.08575475  0.47737949  0.04766404    -0.57330
O26         O  0.96662112  0.53718789  0.06258515    -0.56500
C27         C  0.40834221  0.53362114  0.28542852    -0.02380
C28         C  0.33305542  0.40613715  0.44709607    -0.02380
C29         C  0.16286125  0.53420256  0.03841266    -0.02380
C30         C  0.23323754  0.66340243  0.19512191    -0.02380
O31         O  0.58648275  0.53551622  0.17617674    -0.57710
C32         C  0.48048728  0.45669821  0.09661868     0.74920
O33         O  0.55467503  0.41946330  0.23817765    -0.58870
C34         C  0.61971096  0.51159469  0.20090472     0.74890
C35         C  0.43690309  0.51120704  0.24513545     0.77280
Cd36       Cd  0.51455705  0.47222547  0.18437660     1.37470
O37         O  0.47296487  0.49844011  0.11480431    -0.57710
O38         O  0.46620291  0.53882797  0.21983005    -0.56520
C39         C  0.52768257  0.38118294  0.22764291     0.77240
O40         O  0.43662446  0.46507868  0.23644585    -0.58890
O41         O  0.51151473  0.42576138  0.11597842    -0.57340
O42         O  0.60772243  0.46629872  0.20962154    -0.57330
O43         O  0.49225400  0.38553328  0.19695872    -0.56500
O44         O  0.95994331  0.58814951  0.45634010    -0.57710
C45         C  0.09479234  0.58276820  0.34431760     0.74920
O46         O  0.06372878  0.64349508  0.47172462    -0.58870
C47         C  0.95149871  0.54382399  0.47020374     0.74890
C48         C  0.13204270  0.55184057  0.49607756     0.77280
Cd49       Cd  0.05145071  0.57455065  0.43050784     1.37460
O50         O  0.11345842  0.55049224  0.37234664    -0.57710
O51         O  0.10847390  0.51923859  0.47193879    -0.56520
C52         C  0.04253234  0.67319124  0.44321117     0.77240
O53         O  0.12522044  0.59728433  0.48402280    -0.58890
O54         O  0.04986040  0.60044142  0.35258325    -0.57340
O55         O  0.98576159  0.51195563  0.45849288    -0.57330
O56         O  0.02655365  0.65646920  0.40574570    -0.56500
C57         C  0.90428712  0.52737963  0.49958465    -0.02380
C58         C  0.82729738  0.41379025  0.33386762    -0.02380
C59         C  0.66130937  0.53852656  0.22984356    -0.02380
C60         C  0.73841741  0.67470724  0.07380356    -0.02380
O61         O  0.95651323  0.99147098  0.42278026    -0.57710
C62         C  0.09479153  0.95948507  0.33598630     0.74920
O63         O  0.13169618  0.96317135  0.47899431    -0.58870
C64         C  0.96136442  0.01709065  0.45809614     0.74890
C65         C  0.03398686  0.87922693  0.45148941     0.77280
Cd66       Cd  0.05675902  0.97423373  0.42379088     1.37460
O67         O  0.06868087  0.99899453  0.34371068    -0.57710
O68         O  0.00974057  0.89703325  0.41702596    -0.56520
C69         C  0.13788490  0.00988093  0.48429683     0.77240
O70         O  0.06489286  0.90778428  0.47232336    -0.58890
O71         O  0.10315392  0.92926237  0.36879020    -0.57050
O72         O  0.00842047  0.02294266  0.47240386    -0.57330
O73         O  0.11551758  0.03848940  0.45450510    -0.56500
O74         O  0.58773150  0.05110293  0.17686244    -0.57710
C75         C  0.49682186  0.14249811  0.08686997     0.74920
O76         O  0.44371832  0.11499876  0.23751981    -0.58870
C77         C  0.62579221  0.07638758  0.19371517     0.74890
C78         C  0.54388800  0.19133589  0.23586786     0.77280
Cd79       Cd  0.51948432  0.11629967  0.17934800     1.37470
O80         O  0.52467276  0.10478768  0.09809442    -0.57710
O81         O  0.53287300  0.20029917  0.19429758    -0.56520
C82         C  0.43157893  0.06905456  0.23407711     0.77240
O83         O  0.54189200  0.14660721  0.25136646    -0.58890
O84         O  0.48314002  0.17093964  0.11819341    -0.57340
O85         O  0.61782979  0.12297381  0.19533678    -0.57330
O86         O  0.45172389  0.04931195  0.19983926    -0.56500
C87         C  0.91567283  0.04380700  0.48089098    -0.02380
C88         C  0.84367295  0.17685260  0.31455134    -0.02380
C89         C  0.66927996  0.05062651  0.22298311    -0.02380
C90         C  0.73662560  0.91730579  0.07315392    -0.02380
O91         O  0.61084548  0.02517500  0.39328584    -0.57710
C92         C  0.46651496  0.01782380  0.29127676     0.74920
O93         O  0.65861425  0.99741183  0.29107088    -0.58870
C94         C  0.60302244  0.98484302  0.41624215     0.74890
C95         C  0.56812844  0.89348547  0.29940945     0.77280
Cd96       Cd  0.56880778  0.98887547  0.32621626     1.37470
O97         O  0.50308151  0.04912627  0.30222347    -0.57710
O98         O  0.52764534  0.91480816  0.31392998    -0.56520
C99         C  0.63885539  0.02807854  0.26218953     0.77240
O100        O  0.61138085  0.91801348  0.29947409    -0.58890
O101        O  0.47692824  0.97179233  0.29788358    -0.57340
O102        O  0.57008508  0.95335127  0.40111234    -0.57330
O103        O  0.59052425  0.03908233  0.26698153    -0.56500
O104        O  0.01498400  0.08281481  0.16434692    -0.57710
C105        C  0.11929544  0.05988922  0.04739211     0.74920
O106        O  0.94818152  0.11536893  0.02590839    -0.58870
C107        C  0.98692593  0.12110294  0.17182796     0.74890
C108        C  0.07136668  0.19238240  0.07325202     0.77280
Cd109      Cd  0.02226342  0.10287930  0.08224844     1.37460
O110        O  0.10217114  0.04853321  0.08676594    -0.57710
O111        O  0.08361915  0.16083053  0.10418174    -0.56520
C112        C  0.94205773  0.06838665  0.02189043     0.77240
O113        O  0.03242494  0.18228052  0.04729566    -0.58890
O114        O  0.09129031  0.09126230  0.02498875    -0.57340
O115        O  0.97300857  0.14752741  0.13755049    -0.57330
O116        O  0.96458512  0.04043067  0.05196280    -0.56500
C117        C  0.16585706  0.03251632  0.02561720    -0.02380
C118        C  0.23792192  0.90358025  0.19536751    -0.02380
C119        C  0.41241829  0.03675849  0.27567268    -0.02380
C120        C  0.34309545  0.16609014  0.43846438    -0.02380
C121        C  0.33084399  0.13050013  0.35323646    -0.01740
C122        C  0.36467112  0.13951144  0.39235249     0.07940
C123        C  0.41386078  0.11116138  0.38971997    -0.01860
C124        C  0.41835539  0.07048199  0.36008587    -0.01860
C125        C  0.39321470  0.07183629  0.31635776     0.08070
C126        C  0.34989775  0.10591602  0.31352243    -0.02060
Br127      Br  0.31331912  0.11635504  0.25680925    -0.00600
Br128      Br  0.25590614  0.14492175  0.35312256    -0.00680
Br129      Br  0.45013197  0.00890637  0.38732776    -0.00640
Br130      Br  0.48020841  0.11711345  0.42280660    -0.00620
C131        C  0.34350772  0.92096684  0.20940078    -0.01740
C132        C  0.29046020  0.92272146  0.22424422     0.07940
C133        C  0.28947224  0.93882722  0.27072779    -0.01860
C134        C  0.32681209  0.97519953  0.28733043    -0.01860
C135        C  0.37285420  0.99026731  0.26188006     0.08070
C136        C  0.38355105  0.95527712  0.22619367    -0.02060
Br137      Br  0.45359819  0.94521179  0.20257421    -0.00600
Br138      Br  0.36420297  0.86590168  0.17198091    -0.00680
Br139      Br  0.31495483  0.99542281  0.34863527    -0.00640
Br140      Br  0.24366141  0.90591012  0.31623059    -0.00620
C141        C  0.23304372  0.00366010  0.08951319    -0.01740
C142        C  0.18732713  0.99253487  0.06344527     0.07940
C143        C  0.15567808  0.95312943  0.08404895    -0.01860
C144        C  0.16719451  0.93640885  0.12946337    -0.01860
C145        C  0.22181657  0.93426950  0.14735779     0.08070
C146        C  0.25527571  0.96795950  0.12074022    -0.02060
Br147      Br  0.33036110  0.97343577  0.12031339    -0.00600
Br148      Br  0.23716796  0.07016671  0.11155438    -0.00680
Br149      Br  0.10687411  0.96052727  0.16384693    -0.00640
Br150      Br  0.08488565  0.93622135  0.06322079    -0.00620
C151        C  0.24325734  0.14945511  0.46879004    -0.01740
C152        C  0.29306601  0.13036596  0.45500289     0.07940
C153        C  0.29594408  0.07571233  0.46131335    -0.01860
C154        C  0.25363366  0.04551156  0.97995259    -0.01860
C155        C  0.21137078  0.06753676  0.00323683     0.08070
C156        C  0.21024000  0.12114206  0.99906356    -0.02060
Br157      Br  0.18401852  0.16040423  0.04581522    -0.00600
Br158      Br  0.21269524  0.21137209  0.44536324    -0.00680
Br159      Br  0.25696067  0.97240368  0.97660303    -0.00640
Br160      Br  0.35917474  0.03773873  0.45603636    -0.00620
C161        C  0.64536025  0.96192813  0.03748602    -0.01740
C162        C  0.69441727  0.93326750  0.03370058     0.07940
C163        C  0.70756960  0.92094918  0.48759840    -0.01860
C164        C  0.67939845  0.94110782  0.45004069    -0.01860
C165        C  0.63525352  0.97113252  0.45594717     0.08070
C166        C  0.61737540  0.98048525  0.49876987    -0.02060
Br167      Br  0.55258200  0.01965871  0.50213184    -0.00600
Br168      Br  0.60919041  0.98033038  0.09063147    -0.00680
Br169      Br  0.69997111  0.92663174  0.38860382    -0.00640
Br170      Br  0.76209953  0.87394328  0.47171960    -0.00620
C171        C  0.76370879  0.97242261  0.14789690    -0.01740
C172        C  0.72694017  0.94001429  0.12323638     0.07940
C173        C  0.68233721  0.92651455  0.15057916    -0.01860
C174        C  0.66211237  0.96109297  0.18229991    -0.01860
C175        C  0.69266383  0.00420647  0.19585841     0.08070
C176        C  0.74669887  0.99896539  0.18641882    -0.02060
Br177      Br  0.79391276  0.00225024  0.23729227    -0.00600
Br178      Br  0.83997980  0.97702048  0.13891578    -0.00680
Br179      Br  0.59078268  0.94708596  0.20275800    -0.00640
Br180      Br  0.64556453  0.86298942  0.14604685    -0.00620
C181        C  0.70050214  0.12175942  0.28332921    -0.01740
C182        C  0.70908573  0.09272287  0.24327236     0.07940
C183        C  0.75095566  0.11248162  0.21727262    -0.01860
C184        C  0.79481178  0.13845857  0.23760207    -0.01860
C185        C  0.79352072  0.15468550  0.28472562     0.08070
C186        C  0.74041579  0.15579182  0.30037334    -0.02060
Br187      Br  0.71985386  0.20469725  0.34476670    -0.00600
Br188      Br  0.63392279  0.12254991  0.31526992    -0.00680
Br189      Br  0.84628275  0.15947444  0.19233553    -0.00640
Br190      Br  0.74091069  0.11444084  0.15230015    -0.00620
C191        C  0.94509109  0.09789247  0.24559825    -0.01740
C192        C  0.96858220  0.13449183  0.21748101     0.07940
C193        C  0.96493492  0.18543947  0.22861291    -0.01860
C194        C  0.92849293  0.20120559  0.26153586    -0.01860
C195        C  0.89476443  0.16451021  0.28506143     0.08070
C196        C  0.90861028  0.11211220  0.27862149    -0.02060
Br197      Br  0.87586384  0.05519456  0.30920236    -0.00600
Br198      Br  0.95833266  0.02713862  0.23491663    -0.00680
Br199      Br  0.92813670  0.27345970  0.26883487    -0.00640
Br200      Br  0.00963629  0.23380908  0.19614309    -0.00620
C201        C  0.90918397  0.15229566  0.38423364    -0.01740
C202        C  0.85681034  0.14683660  0.36330603     0.07940
C203        C  0.82527674  0.10721367  0.38594094    -0.01860
C204        C  0.84831835  0.07119286  0.41665263    -0.01860
C205        C  0.89536261  0.08141114  0.44122874     0.08070
C206        C  0.92722198  0.12143057  0.42199821    -0.02060
Br207      Br  0.00100216  0.13023193  0.44078065    -0.00600
Br208      Br  0.95932126  0.20451147  0.36489028    -0.00680
Br209      Br  0.82270434  0.00184213  0.41276614    -0.00640
Br210      Br  0.75041679  0.09412623  0.38323299    -0.00620
C211        C  0.83856138  0.92707597  0.04035367    -0.01740
C212        C  0.78813603  0.94772536  0.05230656     0.07940
C213        C  0.78462675  0.00183994  0.04329773    -0.01860
C214        C  0.82529676  0.03095065  0.52156234    -0.01860
C215        C  0.87175508  0.00868027  0.00492890     0.08070
C216        C  0.87969086  0.95738367  0.01960084    -0.02060
Br217      Br  0.95022630  0.92963223  0.02215526    -0.00600
Br218      Br  0.85697019  0.85774069  0.05198038    -0.00680
Br219      Br  0.81900824  0.10423122  0.51935558    -0.00640
Br220      Br  0.72547601  0.04149972  0.56219913    -0.00620
C221        C  0.47266253  0.18931026  0.01372562    -0.01740
C222        C  0.47088705  0.14608151  0.04233421     0.07940
C223        C  0.43174958  0.11005815  0.03505028    -0.01860
C224        C  0.38603122  0.12603614  0.01317781    -0.01860
C225        C  0.38814956  0.16229492  0.97681963     0.08070
C226        C  0.43455908  0.19467784  0.97780915    -0.02060
Br227      Br  0.45338532  0.23848666  0.42718429    -0.00600
Br228      Br  0.53129330  0.23572223  0.02024167    -0.00680
Br229      Br  0.32922422  0.12004292  0.05426403    -0.00640
Br230      Br  0.43100705  0.04576985  0.06779611    -0.00620
C231        C  0.15216105  0.98573514  0.27264662    -0.01740
C232        C  0.11842774  0.94947726  0.29218164     0.07940
C233        C  0.11401492  0.90123925  0.27353206    -0.01860
C234        C  0.14726427  0.88770724  0.23789483    -0.01860
C235        C  0.19071304  0.91990119  0.22543122     0.08070
C236        C  0.18768105  0.97159452  0.23940237    -0.02060
Br237      Br  0.23168430  0.02497726  0.21484767    -0.00600
Br238      Br  0.15459330  0.05364680  0.29529430    -0.00680
Br239      Br  0.11840004  0.83965126  0.19559256    -0.00640
Br240      Br  0.06037820  0.85455608  0.29549222    -0.00620
C241        C  0.70709122  0.77112763  0.04394540    -0.01740
C242        C  0.74032637  0.73838329  0.07319543     0.07940
C243        C  0.76721052  0.76830448  0.10737079    -0.01860
C244        C  0.76570189  0.82333385  0.10862028    -0.01860
C245        C  0.73562999  0.85424413  0.07691145     0.08070
C246        C  0.69830514  0.82327512  0.05238653    -0.02060
Br247      Br  0.62492180  0.84388592  0.53931315    -0.00600
Br248      Br  0.67119254  0.75558963  0.48705325    -0.00680
Br249      Br  0.80304331  0.85507647  0.15797347    -0.00640
Br250      Br  0.80600572  0.73669341  0.15649291    -0.00620
C251        C  0.76006189  0.62059849  0.15336447    -0.01740
C252        C  0.72487339  0.65168927  0.12492734     0.07940
C253        C  0.67742841  0.66156478  0.14824788    -0.01860
C254        C  0.65473462  0.62528471  0.17946977    -0.01860
C255        C  0.68580439  0.58474283  0.19936249     0.08070
C256        C  0.74053731  0.59173511  0.19161001    -0.02060
Br257      Br  0.78682342  0.58249382  0.24253795    -0.00600
Br258      Br  0.83703100  0.62104387  0.14847413    -0.00680
Br259      Br  0.58361867  0.64033293  0.19868611    -0.00640
Br260      Br  0.66122120  0.73093936  0.15954515    -0.00620
C261        C  0.86201512  0.31696845  0.36060880    -0.01740
C262        C  0.82815799  0.35097865  0.33426581     0.07940
C263        C  0.79382895  0.32153908  0.30567952    -0.01860
C264        C  0.80755970  0.27197092  0.29238215    -0.01860
C265        C  0.83489214  0.23741265  0.32286081     0.08070
C266        C  0.85207397  0.26345200  0.36245900    -0.02060
Br267      Br  0.84096537  0.23598549  0.42302643    -0.00600
Br268      Br  0.92242747  0.33431172  0.39662772    -0.00680
Br269      Br  0.78904661  0.25922497  0.23101475    -0.00640
Br270      Br  0.71865300  0.33187303  0.30109687    -0.00620
C271        C  0.77497910  0.43656328  0.25528676    -0.01740
C272        C  0.77632389  0.43300775  0.30415559     0.07940
C273        C  0.72679160  0.44530059  0.32358516    -0.01860
C274        C  0.68784571  0.47302655  0.29823661    -0.01860
C275        C  0.69881299  0.49583898  0.25412101     0.08070
C276        C  0.73839767  0.46914286  0.23114425    -0.02060
Br277      Br  0.73717075  0.47036596  0.16607377    -0.00600
Br278      Br  0.81690354  0.39161589  0.22015524    -0.00680
Br279      Br  0.61685147  0.46486255  0.32163161    -0.00640
Br280      Br  0.70921163  0.42435354  0.38494589    -0.00620
C281        C  0.84896170  0.51977406  0.42508866    -0.01740
C282        C  0.87278047  0.49346240  0.46303417     0.07940
C283        C  0.86801509  0.43921114  0.46087115    -0.01860
C284        C  0.83981456  0.41551128  0.42475560    -0.01860
C285        C  0.82962246  0.44087099  0.38265616     0.08070
C286        C  0.82733879  0.49458890  0.38701651    -0.02060
Br287      Br  0.78518777  0.53712468  0.34722309    -0.00600
Br288      Br  0.84972090  0.59302927  0.42079375    -0.00680
Br289      Br  0.79835895  0.35647761  0.44180782    -0.00640
Br290      Br  0.90169691  0.39077680  0.50100228    -0.00620
C291        C  0.81668630  0.55160188  0.03902346    -0.01740
C292        C  0.86591795  0.56859349  0.02109971     0.07940
C293        C  0.87895392  0.62033234  0.03092109    -0.01860
C294        C  0.84012683  0.65519645  0.04649699    -0.01860
C295        C  0.78750032  0.63930319  0.05861533     0.08070
C296        C  0.77822593  0.58514848  0.05552200    -0.02060
Br297      Br  0.71133720  0.55257998  0.07295619    -0.00600
Br298      Br  0.80347481  0.47975840  0.04786792    -0.00680
Br299      Br  0.86151221  0.72486334  0.04977765    -0.00640
Br300      Br  0.95145101  0.64385401  0.03498730    -0.00620
C301        C  0.98786600  0.74829902  0.44632046    -0.01740
C302        C  0.03694202  0.72479668  0.45384000     0.07940
C303        C  0.08096437  0.75055153  0.47188684    -0.01860
C304        C  0.07744768  0.80184428  0.47819516    -0.01860
C305        C  0.03037623  0.82678703  0.46431291     0.08070
C306        C  0.98437123  0.79975476  0.45207403    -0.02060
Br307      Br  0.91746771  0.83307097  0.44028229    -0.00600
Br308      Br  0.92600367  0.71117650  0.42616822    -0.00680
Br309      Br  0.14070981  0.83654199  0.49989736    -0.00640
Br310      Br  0.14893922  0.71799426  0.48172409    -0.00620
C311        C  0.59072609  0.31344400  0.23944022    -0.01740
C312        C  0.54034410  0.33312561  0.24800819     0.07940
C313        C  0.50111720  0.30409403  0.27039099    -0.01860
C314        C  0.51234397  0.25426661  0.28268371    -0.01860
C315        C  0.55695058  0.23258660  0.26428270     0.08070
C316        C  0.59913656  0.26245562  0.24838844    -0.02060
Br317      Br  0.65908481  0.22999653  0.22298448    -0.00600
Br318      Br  0.64214988  0.35156322  0.20380138    -0.00680
Br319      Br  0.45987941  0.21060554  0.31011966    -0.00640
Br320      Br  0.42945182  0.32788079  0.27486338    -0.00620
C321        C  0.22011914  0.75918002  0.22810942    -0.01740
C322        C  0.23795666  0.72655147  0.19305609     0.07940
C323        C  0.25449878  0.75766587  0.15388197    -0.01860
C324        C  0.24846265  0.81263213  0.15150187    -0.01860
C325        C  0.24098100  0.84164591  0.19157264     0.08070
C326        C  0.23977906  0.80939668  0.23092551    -0.02060
Br327      Br  0.29968643  0.81147840  0.27139879    -0.00600
Br328      Br  0.15724098  0.74963612  0.26440366    -0.00680
Br329      Br  0.25584729  0.84565966  0.09281972    -0.00640
Br330      Br  0.28693614  0.72902345  0.10190041    -0.00620
C331        C  0.17486070  0.62745008  0.31625249    -0.01740
C332        C  0.12650075  0.60385273  0.30678289     0.07940
C333        C  0.10537116  0.60738822  0.26346740    -0.01860
C334        C  0.13743621  0.62408122  0.22692775    -0.01860
C335        C  0.19017515  0.64650497  0.23353832     0.08070
C336        C  0.20595329  0.64912984  0.28118549    -0.02060
Br337      Br  0.26610538  0.68779957  0.30356956    -0.00600
Br338      Br  0.19300563  0.63796067  0.37940328    -0.00680
Br339      Br  0.10525432  0.60034514  0.17345997    -0.00640
Br340      Br  0.03108663  0.58669144  0.25526368    -0.00620
C341        C  0.17846964  0.65601153  0.11617566    -0.01740
C342        C  0.22235913  0.64237250  0.14456590     0.07940
C343        C  0.25664439  0.60726260  0.12345896    -0.01860
C344        C  0.23620219  0.57059120  0.09413525    -0.01860
C345        C  0.18705227  0.57733164  0.07036094     0.08070
C346        C  0.15894562  0.62234560  0.08205829    -0.02060
Br347      Br  0.08502076  0.63129243  0.06634371    -0.00600
Br348      Br  0.13798994  0.71575452  0.12862797    -0.00680
Br349      Br  0.27369969  0.50752180  0.09831441    -0.00640
Br350      Br  0.33378982  0.61199983  0.12502351    -0.00620
C351        C  0.34883561  0.30772456  0.47654020    -0.01740
C352        C  0.32787422  0.34348393  0.44357208     0.07940
C353        C  0.31122819  0.31634065  0.40354751    -0.01860
C354        C  0.32271166  0.26278065  0.39792837    -0.01860
C355        C  0.33024246  0.22794692  0.43639821     0.08070
C356        C  0.33227533  0.25666844  0.47695408    -0.02060
Br357      Br  0.30597677  0.23532760  0.03450604    -0.00600
Br358      Br  0.41459434  0.31389125  0.01071441    -0.00680
Br359      Br  0.33261474  0.24464557  0.33648027    -0.00640
Br360      Br  0.27218245  0.34876391  0.35472551    -0.00620
C361        C  0.24812722  0.52229101  0.49054720    -0.01740
C362        C  0.20618386  0.49957696  0.01570447     0.07940
C363        C  0.20385865  0.44604246  0.01411708    -0.01860
C364        C  0.23491082  0.41838463  0.98322328    -0.01860
C365        C  0.28404898  0.43863259  0.46666699     0.08070
C366        C  0.28943804  0.49275871  0.47276946    -0.02060
Br367      Br  0.35243740  0.53152800  0.45877231    -0.00600
Br368      Br  0.25262361  0.59529341  0.48306624    -0.00680
Br369      Br  0.20948030  0.35198455  0.96902760    -0.00640
Br370      Br  0.17813876  0.40835319  0.06509557    -0.00620
C371        C  0.46655389  0.44310766  0.01541088    -0.01740
C372        C  0.44752603  0.44162392  0.05892364     0.07940
C373        C  0.39614888  0.42548765  0.06798776    -0.01860
C374        C  0.36278315  0.41008194  0.03261668    -0.01860
C375        C  0.37712440  0.41833581  0.98526762     0.08070
C376        C  0.43071319  0.43897062  0.97877603    -0.02060
Br377      Br  0.45941050  0.47764713  0.42894364    -0.00600
Br378      Br  0.54244012  0.45421799  0.00742158    -0.00680
Br379      Br  0.30426254  0.36867952  0.05431430    -0.00640
Br380      Br  0.37489553  0.41825152  0.13104283    -0.00620
C381        C  0.33573565  0.50220977  0.34401138    -0.01740
C382        C  0.38374217  0.49302660  0.32090764     0.07940
C383        C  0.41082507  0.44790067  0.33595046    -0.01860
C384        C  0.39095905  0.41575750  0.37201200    -0.01860
C385        C  0.34586093  0.42939234  0.39735349     0.08070
C386        C  0.31340580  0.46647548  0.37457904    -0.02060
Br387      Br  0.23620478  0.46737153  0.37672314    -0.00600
Br388      Br  0.30499698  0.56793116  0.34704476    -0.00680
Br389      Br  0.43341773  0.35886749  0.39162115    -0.00640
Br390      Br  0.48386300  0.43657775  0.32034013    -0.00620
C391        C  0.36813371  0.62319211  0.25762047    -0.01740
C392        C  0.36552388  0.56930269  0.26112884     0.07940
C393        C  0.32144551  0.54692756  0.23850616    -0.01860
C394        C  0.27896293  0.57663214  0.22084812    -0.01860
C395        C  0.28348828  0.63106118  0.21422614     0.08070
C396        C  0.33369350  0.65133898  0.22800684    -0.02060
Br397      Br  0.35919283  0.71672373  0.20799343    -0.00600
Br398      Br  0.40525679  0.66306693  0.30118276    -0.00680
Br399      Br  0.21565180  0.53789652  0.20601957    -0.00640
Br400      Br  0.31571159  0.47396868  0.23393775    -0.00620
C401        C  0.07730390  0.32141116  0.03983011    -0.01740
C402        C  0.08009187  0.33741902  0.08481763     0.07940
C403        C  0.10808072  0.30943393  0.11837143    -0.01860
C404        C  0.12073050  0.26015229  0.10924785    -0.01860
C405        C  0.09953832  0.23990095  0.06935701     0.08070
C406        C  0.08774047  0.27146056  0.03192758    -0.02060
Br407      Br  0.07833275  0.24508146  0.97220804    -0.00600
Br408      Br  0.05777084  0.36644213  0.98985812    -0.00680
Br409      Br  0.15971909  0.21985704  0.15371367    -0.00640
Br410      Br  0.12384951  0.33484613  0.17784424    -0.00620
C411        C  0.96467780  0.42226705  0.27651141    -0.01740
C412        C  0.94852558  0.45078270  0.23773792     0.07940
C413        C  0.90128987  0.47728483  0.23916042    -0.01860
C414        C  0.87563519  0.48068907  0.28024996    -0.01860
C415        C  0.87849058  0.43736744  0.30952962     0.08070
C416        C  0.93139523  0.42016219  0.31511240    -0.02060
Br417      Br  0.96839978  0.44266964  0.36841466    -0.00600
Br418      Br  0.03392646  0.39285777  0.27923341    -0.00680
Br419      Br  0.90278647  0.54254868  0.30454842    -0.00640
Br420      Br  0.87265859  0.50864932  0.18533333    -0.00620
C421        C  0.61290198  0.76366656  0.29707733    -0.01740
C422        C  0.56715131  0.74242041  0.31774217     0.07940
C423        C  0.52037432  0.77022385  0.32106654    -0.01860
C424        C  0.51731199  0.81603194  0.29832068    -0.01860
C425        C  0.56503006  0.84121714  0.28744290     0.08070
C426        C  0.61234010  0.81409575  0.28308412    -0.02060
Br427      Br  0.67740680  0.84525234  0.26124934    -0.00600
Br428      Br  0.67901620  0.72723599  0.29365427    -0.00680
Br429      Br  0.44800480  0.84520088  0.28750469    -0.00640
Br430      Br  0.46397337  0.75283606  0.36273874    -0.00620
C431        C  0.71521201  0.65231675  0.48908814    -0.01740
C432        C  0.69684378  0.65893879  0.03490096     0.07940
C433        C  0.64184282  0.64662121  0.04151975    -0.01860
C434        C  0.61374525  0.61567787  0.51081943    -0.01860
C435        C  0.63558973  0.60409447  0.46890882     0.08070
C436        C  0.68495440  0.62539378  0.45734773    -0.02060
Br437      Br  0.70669743  0.62615284  0.39466116    -0.00600
Br438      Br  0.77527452  0.69050661  0.46430286    -0.00680
Br439      Br  0.54212164  0.59347086  0.52405116    -0.00640
Br440      Br  0.59622332  0.68994073  0.07370953    -0.00620
O441        O  0.61418633  0.55213195  0.90484949    -0.57710
C442        C  0.45541039  0.55881641  0.80982205     0.74920
O443        O  0.59201848  0.65998937  0.80577745    -0.58870
C444        C  0.60122847  0.58720214  0.93103051     0.74890
C445        C  0.62901696  0.56023358  0.76810133     0.77280
Cd446      Cd  0.56008501  0.58881513  0.84088674     1.37460
O447        O  0.47334915  0.54333610  0.84795635    -0.57710
O448        O  0.57947178  0.55163226  0.77076397    -0.56520
C449        C  0.56517568  0.68945368  0.82836245     0.77240
O450        O  0.64963679  0.58239075  0.80153164    -0.58890
O451        O  0.48448415  0.59095071  0.78958709    -0.57340
O452        O  0.56256320  0.61424339  0.91856213    -0.57330
O453        O  0.53484908  0.67073770  0.85808298    -0.56500
O454        O  0.10347613  0.52234181  0.60455267    -0.57710
C455        C  0.97950071  0.45724760  0.69623854     0.74920
O456        O  0.93644256  0.46294293  0.55640846    -0.58870
C457        C  0.11734382  0.50852730  0.56563842     0.74890
C458        C  0.05451495  0.38302226  0.59564207     0.77280
Cd459      Cd  0.01673706  0.47383208  0.60609390     1.37460
O460        O  0.99664169  0.50039767  0.68276173    -0.57710
O461        O  0.07693436  0.41345418  0.62201368    -0.56520
C462        C  0.93552418  0.50761809  0.54161757     0.77240
O463        O  0.01012602  0.39421326  0.57746614    -0.58890
O464        O  0.98225244  0.42188055  0.66899442    -0.57340
O465        O  0.08575098  0.47737536  0.54766086    -0.57330
O466        O  0.96662831  0.53718527  0.56257887    -0.56500
C467        C  0.40834625  0.53361446  0.78543187    -0.02380
C468        C  0.33305200  0.40612890  0.94709821    -0.02380
C469        C  0.16285871  0.53419841  0.53841284    -0.02380
C470        C  0.23323785  0.66339072  0.69512599    -0.02380
O471        O  0.58648101  0.53552039  0.67618207    -0.57710
C472        C  0.48049692  0.45670278  0.59661479     0.74920
O473        O  0.55467899  0.41946135  0.73817616    -0.58870
C474        C  0.61971294  0.51159719  0.70090479     0.74890
C475        C  0.43690774  0.51120187  0.74513818     0.77280
Cd476      Cd  0.51456164  0.47222497  0.68437586     1.37470
O477        O  0.47297226  0.49844288  0.61480290    -0.57710
O478        O  0.46620551  0.53882447  0.71983239    -0.56520
C479        C  0.52768604  0.38118149  0.72764081     0.77240
O480        O  0.43663091  0.46507379  0.73644767    -0.58890
O481        O  0.51152393  0.42576528  0.61597412    -0.57340
O482        O  0.60772957  0.46629860  0.70961528    -0.57330
O483        O  0.49225774  0.38553275  0.69695647    -0.56500
O484        O  0.95994321  0.58814791  0.95634183    -0.57710
C485        C  0.09478541  0.58276229  0.84431677     0.74920
O486        O  0.06372922  0.64349600  0.97172033    -0.58870
C487        C  0.95149855  0.54382252  0.97020562     0.74890
C488        C  0.13204447  0.55184230  0.99607675     0.77280
Cd489      Cd  0.05144912  0.57454858  0.93050790     1.37460
O490        O  0.11345008  0.55048430  0.87234467    -0.57710
O491        O  0.10847465  0.51923898  0.97194014    -0.56520
C492        C  0.04253151  0.67319061  0.94320632     0.77240
O493        O  0.12522216  0.59728532  0.98401961    -0.58890
O494        O  0.04985515  0.60043823  0.85258363    -0.57340
O495        O  0.98576118  0.51195397  0.95849476    -0.57330
O496        O  0.02655044  0.65646615  0.90574247    -0.56500
C497        C  0.90428696  0.52737835  0.99958622    -0.02380
C498        C  0.82729781  0.41379023  0.83386795    -0.02380
C499        C  0.66131142  0.53852793  0.72984412    -0.02380
C500        C  0.73841743  0.67470815  0.57380285    -0.02380
O501        O  0.95650982  0.99147212  0.92277723    -0.57710
C502        C  0.09479463  0.95948649  0.83598592     0.74920
O503        O  0.13168753  0.96317685  0.97899592    -0.58870
C504        C  0.96136056  0.01709115  0.95809361     0.74890
C505        C  0.03398536  0.87922851  0.95148384     0.77280
Cd506      Cd  0.05675544  0.97423653  0.92378885     1.37460
O507        O  0.06868212  0.99899571  0.84370753    -0.57710
O508        O  0.00974168  0.89703486  0.91701904    -0.56520
C509        C  0.13787419  0.00988659  0.98429821     0.77240
O510        O  0.06488619  0.90778677  0.97232228    -0.58890
O511        O  0.10315863  0.92926720  0.86879207    -0.57050
O512        O  0.00841626  0.02294356  0.97240172    -0.57330
O513        O  0.11550702  0.03849405  0.95450559    -0.56500
O514        O  0.58773116  0.05110083  0.67686092    -0.57710
C515        C  0.49682068  0.14249945  0.58686557     0.74920
O516        O  0.44371379  0.11499536  0.73751428    -0.58870
C517        C  0.62579129  0.07638610  0.69371360     0.74890
C518        C  0.54388720  0.19133288  0.73586365     0.77280
Cd519      Cd  0.51948284  0.11629633  0.67934368     1.37470
O520        O  0.52465668  0.10477839  0.59808888    -0.57710
O521        O  0.53287145  0.20029594  0.69429351    -0.56520
C522        C  0.43157556  0.06905082  0.73407158     0.77240
O523        O  0.54189000  0.14660430  0.75136263    -0.58890
O524        O  0.48315379  0.17094664  0.61818961    -0.57340
O525        O  0.61782860  0.12297228  0.69533335    -0.57330
O526        O  0.45172197  0.04930858  0.69983425    -0.56500
C527        C  0.91566887  0.04380683  0.98088848    -0.02380
C528        C  0.84367157  0.17685302  0.81454952    -0.02380
C529        C  0.66927895  0.05062621  0.72298252    -0.02380
C530        C  0.73662610  0.91730729  0.57315467    -0.02380
O531        O  0.61083174  0.02516785  0.89328603    -0.57710
C532        C  0.46651064  0.01781685  0.79127009     0.74920
O533        O  0.65861188  0.99740814  0.79106790    -0.58870
C534        C  0.60301954  0.98483067  0.91623771     0.74890
C535        C  0.56812722  0.89347935  0.79939903     0.77280
Cd536      Cd  0.56880433  0.98886803  0.82621083     1.37470
O537        O  0.50307912  0.04911826  0.80221468    -0.57710
O538        O  0.52763994  0.91480503  0.81390787    -0.56520
C539        C  0.63885424  0.02807788  0.76218865     0.77240
O540        O  0.61138097  0.91800529  0.79947373    -0.58890
O541        O  0.47692170  0.97178514  0.79787946    -0.57340
O542        O  0.57009075  0.95333349  0.90110378    -0.57330
O543        O  0.59052349  0.03908237  0.76698118    -0.56500
O544        O  0.01498786  0.08281522  0.66434773    -0.57710
C545        C  0.11930480  0.05988270  0.54739372     0.74920
O546        O  0.94818913  0.11536860  0.52591001    -0.58870
C547        C  0.98692993  0.12110399  0.67182712     0.74890
C548        C  0.07137612  0.19238112  0.57324898     0.77280
Cd549      Cd  0.02227267  0.10287762  0.58224911     1.37460
O550        O  0.10218644  0.04853478  0.58677121    -0.57710
O551        O  0.08362310  0.16083364  0.60418397    -0.56520
C552        C  0.94206299  0.06838648  0.52189271     0.77240
O553        O  0.03243883  0.18227522  0.54728926    -0.58890
O554        O  0.09129565  0.09125093  0.52498847    -0.57340
O555        O  0.97301625  0.14752884  0.63754878    -0.57330
O556        O  0.96459022  0.04043012  0.55196497    -0.56500
C557        C  0.16586579  0.03250830  0.52561794    -0.02380
C558        C  0.23791524  0.90356558  0.69536597    -0.02380
C559        C  0.41241447  0.03675395  0.77566667    -0.02380
C560        C  0.34309737  0.16607770  0.93846356    -0.02380
C561        C  0.33084279  0.13049466  0.85323408    -0.01740
C562        C  0.36467215  0.13950465  0.89234920     0.07940
C563        C  0.41386371  0.11115853  0.88971364    -0.01860
C564        C  0.41835862  0.07047980  0.86007943    -0.01860
C565        C  0.39321353  0.07183194  0.81635279     0.08070
C566        C  0.34989405  0.10590926  0.81351957    -0.02060
Br567      Br  0.31330478  0.11633612  0.75680965    -0.00600
Br568      Br  0.25590614  0.14492693  0.85312143    -0.00680
Br569      Br  0.45014038  0.00890720  0.88732305    -0.00640
Br570      Br  0.48021404  0.11711598  0.92279611    -0.00620
C571        C  0.34350198  0.92095598  0.70940178    -0.01740
C572        C  0.29045291  0.92271397  0.72424138     0.07940
C573        C  0.28946331  0.93882728  0.77072268    -0.01860
C574        C  0.32680440  0.97519967  0.78732330    -0.01860
C575        C  0.37284754  0.99026472  0.76187319     0.08070
C576        C  0.38354364  0.95527208  0.72618847    -0.02060
Br577      Br  0.45359017  0.94520781  0.70256716    -0.00600
Br578      Br  0.36420797  0.86585967  0.67202089    -0.00680
Br579      Br  0.31495105  0.99542214  0.84862830    -0.00640
Br580      Br  0.24365369  0.90591412  0.81622894    -0.00620
C581        C  0.23306529  0.00361661  0.58949527    -0.01740
C582        C  0.18732904  0.99252014  0.56344287     0.07940
C583        C  0.15566715  0.95312790  0.58404991    -0.01860
C584        C  0.16718368  0.93640352  0.62946322    -0.01860
C585        C  0.22180855  0.93424708  0.64735358     0.08070
C586        C  0.25528117  0.96790950  0.62072295    -0.02060
Br587      Br  0.33037045  0.97331385  0.62025726    -0.00600
Br588      Br  0.23726679  0.07012267  0.61151758    -0.00680
Br589      Br  0.10685598  0.96049972  0.66385118    -0.00640
Br590      Br  0.08487008  0.93623965  0.56321847    -0.00620
C591        C  0.24326026  0.14946064  0.96879090    -0.01740
C592        C  0.29306006  0.13036161  0.95499301     0.07940
C593        C  0.29592267  0.07570540  0.96128602    -0.01860
C594        C  0.25365437  0.04551213  0.47996981    -0.01860
C595        C  0.21138078  0.06753139  0.50324302     0.08070
C596        C  0.21024095  0.12113521  0.49906550    -0.02060
Br597      Br  0.18402599  0.16038910  0.54582520    -0.00600
Br598      Br  0.21271508  0.21139533  0.94538577    -0.00680
Br599      Br  0.25698454  0.97240585  0.47660873    -0.00640
Br600      Br  0.35914815  0.03772465  0.95600349    -0.00620
C601        C  0.64535970  0.96193061  0.53748925    -0.01740
C602        C  0.69441723  0.93327069  0.53370243     0.07940
C603        C  0.70756973  0.92094348  0.98759701    -0.01860
C604        C  0.67939723  0.94109831  0.95003829    -0.01860
C605        C  0.63525214  0.97112309  0.95594321     0.08070
C606        C  0.61737712  0.98048180  0.99876561    -0.02060
Br607      Br  0.55258971  0.01966237  0.00212530    -0.00600
Br608      Br  0.60919166  0.98033371  0.59063489    -0.00680
Br609      Br  0.69997084  0.92662040  0.88860212    -0.00640
Br610      Br  0.76210136  0.87393861  0.97172005    -0.00620
C611        C  0.76370903  0.97242311  0.64789790    -0.01740
C612        C  0.72694073  0.94001472  0.62323729     0.07940
C613        C  0.68233776  0.92651413  0.65057983    -0.01860
C614        C  0.66211257  0.96109201  0.68230083    -0.01860
C615        C  0.69266347  0.00420611  0.69585875     0.08070
C616        C  0.74669857  0.99896568  0.68641961    -0.02060
Br617      Br  0.79391151  0.00225043  0.73729365    -0.00600
Br618      Br  0.83998015  0.97702089  0.63891747    -0.00680
Br619      Br  0.59078182  0.94708538  0.70275746    -0.00640
Br620      Br  0.64556317  0.86299028  0.64604462    -0.00620
C621        C  0.70050053  0.12176012  0.78332781    -0.01740
C622        C  0.70908430  0.09272314  0.74327134     0.07940
C623        C  0.75095421  0.11248179  0.71727145    -0.01860
C624        C  0.79481027  0.13845907  0.73760059    -0.01860
C625        C  0.79351919  0.15468620  0.78472397     0.08070
C626        C  0.74041421  0.15579268  0.80037172    -0.02060
Br627      Br  0.71985244  0.20469780  0.84476537    -0.00600
Br628      Br  0.63392099  0.12255070  0.81526821    -0.00680
Br629      Br  0.84628108  0.15947542  0.69233398    -0.00640
Br630      Br  0.74090881  0.11444131  0.65229918    -0.00620
C631        C  0.94509018  0.09789346  0.74559570    -0.01740
C632        C  0.96858223  0.13449301  0.71747914     0.07940
C633        C  0.96493431  0.18544060  0.72861125    -0.01860
C634        C  0.92849174  0.20120638  0.76153400    -0.01860
C635        C  0.89476329  0.16451082  0.78505945     0.08070
C636        C  0.90860949  0.11211294  0.77861922    -0.02060
Br637      Br  0.87586494  0.05519503  0.80920107    -0.00600
Br638      Br  0.95833069  0.02713955  0.73491319    -0.00680
Br639      Br  0.92813510  0.27346041  0.76883342    -0.00640
Br640      Br  0.00963664  0.23381065  0.69614286    -0.00620
C641        C  0.90918162  0.15229563  0.88423189    -0.01740
C642        C  0.85680825  0.14683663  0.86330390     0.07940
C643        C  0.82527427  0.10721349  0.88593823    -0.01860
C644        C  0.84831552  0.07119250  0.91664978    -0.01860
C645        C  0.89535914  0.08141103  0.94122649     0.08070
C646        C  0.92721881  0.12143071  0.92199672    -0.02060
Br647      Br  0.00099834  0.13023299  0.94078090    -0.00600
Br648      Br  0.95931955  0.20451105  0.86488871    -0.00680
Br649      Br  0.82270169  0.00184163  0.91276300    -0.00640
Br650      Br  0.75041435  0.09412585  0.88323035    -0.00620
C651        C  0.83856209  0.92707663  0.54035456    -0.01740
C652        C  0.78813713  0.94772664  0.55230763     0.07940
C653        C  0.78462903  0.00184142  0.54329924    -0.01860
C654        C  0.82529327  0.03094935  0.02155960    -0.01860
C655        C  0.87175831  0.00868110  0.50493165     0.08070
C656        C  0.87969235  0.95738397  0.51960243    -0.02060
Br657      Br  0.95022659  0.92963091  0.52215622    -0.00600
Br658      Br  0.85696916  0.85774065  0.55197950    -0.00680
Br659      Br  0.81900294  0.10422982  0.01935168    -0.00640
Br660      Br  0.72547407  0.04149787  0.06219934    -0.00620
C661        C  0.47266927  0.18931766  0.51372002    -0.01740
C662        C  0.47088110  0.14609045  0.54233201     0.07940
C663        C  0.43172676  0.11008119  0.53505370    -0.01860
C664        C  0.38601566  0.12607857  0.51318377    -0.01860
C665        C  0.38814865  0.16232042  0.47681865     0.08070
C666        C  0.43456417  0.19469375  0.47780456    -0.02060
Br667      Br  0.45337885  0.23847754  0.92719150    -0.00600
Br668      Br  0.53131154  0.23571632  0.52023261    -0.00680
Br669      Br  0.32923645  0.12021437  0.55429761    -0.00640
Br670      Br  0.43093648  0.04580902  0.56782301    -0.00620
C671        C  0.15215844  0.98572970  0.77263916    -0.01740
C672        C  0.11842838  0.94947345  0.79218113     0.07940
C673        C  0.11401463  0.90123249  0.77353697    -0.01860
C674        C  0.14726158  0.88769542  0.73789969    -0.01860
C675        C  0.19070694  0.91988955  0.72542847     0.08070
C676        C  0.18767333  0.97158561  0.73939212    -0.02060
Br677      Br  0.23166502  0.02496738  0.71481962    -0.00600
Br678      Br  0.15459479  0.05364372  0.79528086    -0.00680
Br679      Br  0.11839479  0.83963405  0.69560351    -0.00640
Br680      Br  0.06037976  0.85455180  0.79550447    -0.00620
C681        C  0.70709128  0.77112892  0.54394478    -0.01740
C682        C  0.74032644  0.73838435  0.57319473     0.07940
C683        C  0.76721064  0.76830541  0.60737014    -0.01860
C684        C  0.76570179  0.82333476  0.60862007    -0.01860
C685        C  0.73563019  0.85424546  0.57691127     0.08070
C686        C  0.69830562  0.82327670  0.55238568    -0.02060
Br687      Br  0.62492074  0.84388335  0.03931570    -0.00600
Br688      Br  0.67119313  0.75558871  0.98705352    -0.00680
Br689      Br  0.80304336  0.85507685  0.65797348    -0.00640
Br690      Br  0.80600614  0.73669401  0.65649201    -0.00620
C691        C  0.76006282  0.62059921  0.65336378    -0.01740
C692        C  0.72487392  0.65169010  0.62492694     0.07940
C693        C  0.67742982  0.66156645  0.64824866    -0.01860
C694        C  0.65473664  0.62528707  0.67947166    -0.01860
C695        C  0.68580628  0.58474456  0.69936341     0.08070
C696        C  0.74053895  0.59173621  0.69160986    -0.02060
Br697      Br  0.78682567  0.58249532  0.74253756    -0.00600
Br698      Br  0.83703182  0.62104432  0.64847278    -0.00680
Br699      Br  0.58362262  0.64033750  0.69869173    -0.00640
Br700      Br  0.66122262  0.73094137  0.65954470    -0.00620
C701        C  0.86201455  0.31696814  0.86060873    -0.01740
C702        C  0.82815779  0.35097871  0.83426579     0.07940
C703        C  0.79382836  0.32153972  0.80567931    -0.01860
C704        C  0.80755863  0.27197162  0.79238151    -0.01860
C705        C  0.83489104  0.23741296  0.82285974     0.08070
C706        C  0.85207307  0.26345171  0.86245826    -0.02060
Br707      Br  0.84096333  0.23598468  0.92302541    -0.00600
Br708      Br  0.92242487  0.33431151  0.89663037    -0.00680
Br709      Br  0.78904443  0.25922590  0.73101431    -0.00640
Br710      Br  0.71865235  0.33187413  0.80109717    -0.00620
C711        C  0.77498053  0.43656391  0.75528684    -0.01740
C712        C  0.77632479  0.43300822  0.80415571     0.07940
C713        C  0.72679244  0.44530152  0.82358501    -0.01860
C714        C  0.68784674  0.47302678  0.79823594    -0.01860
C715        C  0.69881480  0.49583985  0.75412086     0.08070
C716        C  0.73839967  0.46914396  0.73114418    -0.02060
Br717      Br  0.73717345  0.47036769  0.66607367    -0.00600
Br718      Br  0.81690483  0.39161634  0.72015539    -0.00680
Br719      Br  0.61685166  0.46486018  0.82162856    -0.00640
Br720      Br  0.70921149  0.42435653  0.88494596    -0.00620
C721        C  0.84896268  0.51977325  0.92508949    -0.01740
C722        C  0.87277983  0.49346112  0.96303560     0.07940
C723        C  0.86801119  0.43920977  0.96087325    -0.01860
C724        C  0.83981180  0.41551066  0.92475646    -0.01860
C725        C  0.82962271  0.44087069  0.88265662     0.08070
C726        C  0.82734012  0.49458858  0.88701695    -0.02060
Br727      Br  0.78519042  0.53712491  0.84722278    -0.00600
Br728      Br  0.84972225  0.59302846  0.92079482    -0.00680
Br729      Br  0.79835478  0.35647659  0.94180577    -0.00640
Br730      Br  0.90168281  0.39077368  0.00100940    -0.00620
C731        C  0.81668579  0.55160279  0.53902148    -0.01740
C732        C  0.86591787  0.56859440  0.52109835     0.07940
C733        C  0.87895401  0.62033288  0.53092049    -0.01860
C734        C  0.84012698  0.65519711  0.54649631    -0.01860
C735        C  0.78750030  0.63930403  0.55861442     0.08070
C736        C  0.77822570  0.58514938  0.55552071    -0.02060
Br737      Br  0.71133700  0.55258111  0.57295546    -0.00600
Br738      Br  0.80347283  0.47975916  0.54786367    -0.00680
Br739      Br  0.86151296  0.72486373  0.54977770    -0.00640
Br740      Br  0.95145125  0.64385321  0.53498818    -0.00620
C741        C  0.98786641  0.74829949  0.94631440    -0.01740
C742        C  0.03694261  0.72479702  0.95383270     0.07940
C743        C  0.08096645  0.75055255  0.97187631    -0.01860
C744        C  0.07745071  0.80184575  0.97818275    -0.01860
C745        C  0.03037763  0.82678784  0.96430412     0.08070
C746        C  0.98437211  0.79975539  0.95206734    -0.02060
Br747      Br  0.91746810  0.83307184  0.94027869    -0.00600
Br748      Br  0.92600266  0.71117675  0.92616579    -0.00680
Br749      Br  0.14071566  0.83654507  0.99987697    -0.00640
Br750      Br  0.14894126  0.71799499  0.98171271    -0.00620
C751        C  0.59072842  0.31344124  0.73943602    -0.01740
C752        C  0.54034706  0.33312351  0.74800520     0.07940
C753        C  0.50112029  0.30409201  0.77038835    -0.01860
C754        C  0.51234702  0.25426444  0.78268069    -0.01860
C755        C  0.55695201  0.23258377  0.76427783     0.08070
C756        C  0.59913780  0.26245235  0.74838248    -0.02060
Br757      Br  0.65908450  0.22999305  0.72297645    -0.00600
Br758      Br  0.64215284  0.35156104  0.70379836    -0.00680
Br759      Br  0.45988488  0.21060391  0.81012021    -0.00640
Br760      Br  0.42945515  0.32787897  0.77486192    -0.00620
C761        C  0.22011597  0.75916719  0.72811325    -0.01740
C762        C  0.23795505  0.72653872  0.69306037     0.07940
C763        C  0.25449797  0.75765158  0.65388616    -0.01860
C764        C  0.24845995  0.81261683  0.65150436    -0.01860
C765        C  0.24097662  0.84163180  0.69157427     0.08070
C766        C  0.23977304  0.80938439  0.73092820    -0.02060
Br767      Br  0.29966982  0.81147258  0.77141242    -0.00600
Br768      Br  0.15724153  0.74962214  0.76441231    -0.00680
Br769      Br  0.25584314  0.84563873  0.59281992    -0.00640
Br770      Br  0.28693950  0.72900844  0.60190657    -0.00620
C771        C  0.17485819  0.62743811  0.81625438    -0.01740
C772        C  0.12649511  0.60384709  0.80678336     0.07940
C773        C  0.10536557  0.60738904  0.76346812    -0.01860
C774        C  0.13743541  0.62407324  0.72692927    -0.01860
C775        C  0.19017554  0.64649321  0.73354133     0.08070
C776        C  0.20595302  0.64911682  0.78118855    -0.02060
Br777      Br  0.26610503  0.68778615  0.80357393    -0.00600
Br778      Br  0.19300303  0.63794569  0.87940544    -0.00680
Br779      Br  0.10526130  0.60032069  0.67346419    -0.00640
Br780      Br  0.03107548  0.58671290  0.75526197    -0.00620
C781        C  0.17846730  0.65600203  0.61618154    -0.01740
C782        C  0.22235792  0.64236178  0.64457030     0.07940
C783        C  0.25664231  0.60725199  0.62346245    -0.01860
C784        C  0.23619904  0.57058240  0.59413776    -0.01860
C785        C  0.18704958  0.57732513  0.57036330     0.08070
C786        C  0.15894315  0.62233836  0.58206255    -0.02060
Br787      Br  0.08501776  0.63128501  0.56634943    -0.00600
Br788      Br  0.13798534  0.71574216  0.62863868    -0.00680
Br789      Br  0.27369374  0.50751157  0.59831656    -0.00640
Br790      Br  0.33378814  0.61198644  0.62502720    -0.00620
C791        C  0.34882514  0.30771489  0.97654904    -0.01740
C792        C  0.32786992  0.34347378  0.94357663     0.07940
C793        C  0.31123057  0.31632981  0.90355136    -0.01860
C794        C  0.32271884  0.26277096  0.89793232    -0.01860
C795        C  0.33025198  0.22793605  0.93640158     0.08070
C796        C  0.33227402  0.25665379  0.97696063    -0.02060
Br797      Br  0.30579790  0.23542583  0.53445721    -0.00600
Br798      Br  0.41459706  0.31389403  0.51071469    -0.00680
Br799      Br  0.33262835  0.24464018  0.83648374    -0.00640
Br800      Br  0.27218755  0.34875271  0.85472705    -0.00620
C801        C  0.24812873  0.52228965  0.99054631    -0.01740
C802        C  0.20618226  0.49957557  0.51570349     0.07940
C803        C  0.20385860  0.44604132  0.51411418    -0.01860
C804        C  0.23491275  0.41838604  0.48322019    -0.01860
C805        C  0.28404708  0.43862822  0.96666822     0.08070
C806        C  0.28943801  0.49275488  0.97276879    -0.02060
Br807      Br  0.35243827  0.53152217  0.95877097    -0.00600
Br808      Br  0.25262782  0.59529184  0.98306386    -0.00680
Br809      Br  0.20948571  0.35198441  0.46902473    -0.00640
Br810      Br  0.17813587  0.40834875  0.56509001    -0.00620
C811        C  0.46656102  0.44311326  0.51540616    -0.01740
C812        C  0.44753507  0.44162936  0.55891963     0.07940
C813        C  0.39615796  0.42549441  0.56798482    -0.01860
C814        C  0.36279042  0.41009057  0.53261427    -0.01860
C815        C  0.37712963  0.41834347  0.48526489     0.08070
C816        C  0.43071846  0.43897737  0.47877223    -0.02060
Br817      Br  0.45940902  0.47763796  0.92894711    -0.00600
Br818      Br  0.54244677  0.45422259  0.50741447    -0.00680
Br819      Br  0.30426775  0.36869503  0.55431365    -0.00640
Br820      Br  0.37490697  0.41825800  0.63104085    -0.00620
C821        C  0.33573772  0.50220216  0.84401336    -0.01740
C822        C  0.38374517  0.49301938  0.82091064     0.07940
C823        C  0.41082683  0.44789285  0.83595353    -0.01860
C824        C  0.39095912  0.41574919  0.87201454    -0.01860
C825        C  0.34585997  0.42938365  0.89735523     0.08070
C826        C  0.31340627  0.46646727  0.87457990    -0.02060
Br827      Br  0.23620535  0.46736300  0.87672170    -0.00600
Br828      Br  0.30499973  0.56792375  0.84704732    -0.00680
Br829      Br  0.43341674  0.35885909  0.89162438    -0.00640
Br830      Br  0.48386487  0.43656971  0.82034366    -0.00620
C831        C  0.36813616  0.62318522  0.75762391    -0.01740
C832        C  0.36552775  0.56929561  0.76113213     0.07940
C833        C  0.32145023  0.54691939  0.73850923    -0.01860
C834        C  0.27896646  0.57662265  0.72085211    -0.01860
C835        C  0.28349001  0.63105153  0.71422982     0.08070
C836        C  0.33369469  0.65133116  0.72801047    -0.02060
Br837      Br  0.35919011  0.71671858  0.70800018    -0.00600
Br838      Br  0.40526015  0.66306127  0.80118524    -0.00680
Br839      Br  0.21565596  0.53788542  0.70602632    -0.00640
Br840      Br  0.31571897  0.47396052  0.73393906    -0.00620
C841        C  0.07730449  0.32140829  0.53982734    -0.01740
C842        C  0.08008988  0.33741493  0.58481533     0.07940
C843        C  0.10808149  0.30943151  0.61836861    -0.01860
C844        C  0.12073864  0.26015213  0.60924320    -0.01860
C845        C  0.09954841  0.23989952  0.56935216     0.08070
C846        C  0.08774702  0.27145913  0.53192349    -0.02060
Br847      Br  0.07833885  0.24508109  0.47220372    -0.00600
Br848      Br  0.05776924  0.36643937  0.48985609    -0.00680
Br849      Br  0.15973196  0.21985975  0.65370805    -0.00640
Br850      Br  0.12384532  0.33484253  0.67784280    -0.00620
C851        C  0.96467801  0.42226532  0.77651158    -0.01740
C852        C  0.94852608  0.45078155  0.73773833     0.07940
C853        C  0.90129114  0.47728481  0.73916132    -0.01860
C854        C  0.87563673  0.48068906  0.78025098    -0.01860
C855        C  0.87849143  0.43736710  0.80953033     0.08070
C856        C  0.93139570  0.42016078  0.81511275    -0.02060
Br857      Br  0.96840098  0.44266732  0.86841498    -0.00600
Br858      Br  0.03392606  0.39285479  0.77923298    -0.00680
Br859      Br  0.90278925  0.54254804  0.80454972    -0.00640
Br860      Br  0.87266065  0.50865095  0.68533469    -0.00620
C861        C  0.61290830  0.76366311  0.79708007    -0.01740
C862        C  0.56715810  0.74241675  0.81774585     0.07940
C863        C  0.52037958  0.77021874  0.82106682    -0.01860
C864        C  0.51731471  0.81602351  0.79831551    -0.01860
C865        C  0.56503138  0.84120991  0.78743544     0.08070
C866        C  0.61234326  0.81409040  0.78308086    -0.02060
Br867      Br  0.67740809  0.84524819  0.76124320    -0.00600
Br868      Br  0.67902568  0.72723669  0.79366247    -0.00680
Br869      Br  0.44800562  0.84518687  0.78749560    -0.00640
Br870      Br  0.46397934  0.75283442  0.86274096    -0.00620
C871        C  0.71521175  0.65231499  0.98908930    -0.01740
C872        C  0.69684384  0.65893972  0.53489996     0.07940
C873        C  0.64184269  0.64662223  0.54151823    -0.01860
C874        C  0.61374582  0.61567513  0.01082220    -0.01860
C875        C  0.63559033  0.60409057  0.96891190     0.08070
C876        C  0.68495441  0.62539057  0.95734984    -0.02060
Br877      Br  0.70669699  0.62614832  0.89466323    -0.00600
Br878      Br  0.77527398  0.69050454  0.96430314    -0.00680
Br879      Br  0.54212272  0.59346757  0.02405507    -0.00640
Br880      Br  0.59622365  0.68993923  0.57371105    -0.00620
loop_ 
_geom_bond_atom_site_label_1 
_geom_bond_atom_site_label_2 
_geom_bond_distance 
_geom_bond_site_symmetry_2 
_ccdc_geom_bond_type 
O1            C4   1.276       .  A
O1           Cd6   2.499       .  S
C2           O11   1.261       .  A
C2            O7   1.268       .  A
C2           C27   1.537       .  S
O3            C9   1.253       .  A
O3           Cd6   2.274       .  S
C4           O12   1.262       .  A
C4          C435   1.483       .  S
C5           O10   1.267       .  A
C5            O8   1.270       .  A
C5           C59   1.532       .  S
Cd6          O13   2.346       .  S
Cd6          O12   2.412       .  S
Cd6          O11   2.420       .  S
Cd6           O7   2.493       .  S
Cd6          O10   2.562       .  S
Cd6           O8   2.380       .  S
C9           O13   1.259       .  A
C9          C422   1.433       .  S
O14          C17   1.272       .  A
O14         Cd19   2.525       .  S
C15          O24   1.258       .  A
C15          O20   1.275       .  A
C15         C412   1.467       .  S
O16          C22   1.253       .  A
O16         Cd19   2.504   1_655  S
C17          O25   1.265       .  A
C17          C29   1.550       .  S
C18          O23   1.270       .  A
C18          O21   1.263       .  A
C18         C402   1.425       .  S
Cd19         O26   2.442   1_455  S
Cd19         O25   2.466       .  S
Cd19         O24   2.445   1_455  S
Cd19         O20   2.454   1_455  S
Cd19         O23   2.304       .  S
Cd19         O21   2.256       .  S
C22          O26   1.271       .  A
C22         C497   1.545   1_554  S
C27          C35   1.538       .  S
C27         C382   1.607       .  S
C27         C392   1.595       .  S
C28         C352   1.674       .  S
C28         C365   1.636       .  S
C28         C385   1.613       .  S
C28         C815   1.610       .  S
C29         C345   1.615       .  S
C29         C362   1.602       .  S
C29         C488   1.529   1_554  S
C30         C322   1.679       .  S
C30         C335   1.631       .  S
C30         C342   1.629       .  S
C30         C395   1.625       .  S
O31          C34   1.269       .  A
O31         Cd36   2.467       .  S
C32          O41   1.261       .  A
C32          O37   1.263       .  A
C32         C372   1.445       .  S
O33          C39   1.261       .  A
O33         Cd36   2.319       .  S
C34          O42   1.257       .  A
C34          C59   1.529       .  S
C35          O40   1.259       .  A
C35          O38   1.270       .  A
Cd36         O43   2.383       .  S
Cd36         O42   2.460       .  S
Cd36         O41   2.399       .  S
Cd36         O37   2.386       .  S
Cd36         O40   2.513       .  S
Cd36         O38   2.430       .  S
C39          O43   1.269       .  A
C39         C312   1.433       .  S
O44          C47   1.252       .  A
O44         Cd49   2.472   1_655  S
C45          O54   1.260       .  A
C45          O50   1.265       .  A
C45         C332   1.469       .  S
O46          C52   1.256       .  A
O46         Cd49   2.245       .  S
C47          O55   1.274       .  A
C47          C57   1.534       .  S
C48          O53   1.262       .  A
C48          O51   1.275       .  A
C48         C469   1.529       .  S
Cd49         O56   2.365       .  S
Cd49         O55   2.466   1_455  S
Cd49         O54   2.385       .  S
Cd49         O50   2.442       .  S
Cd49         O53   2.506       .  S
Cd49         O51   2.372       .  S
C52          O56   1.264       .  A
C52         C302   1.424       .  S
C57         C282   1.621       .  S
C57         C462   1.545       .  S
C57         C732   1.618       .  S
C58         C262   1.668       .  S
C58         C272   1.626       .  S
C58         C285   1.630       .  S
C58         C415   1.598       .  S
C59         C255   1.622       .  S
C59         C275   1.629       .  S
C60         C242   1.691       .  S
C60         C252   1.652       .  S
C60         C295   1.638       .  S
C60         C432   1.607       .  S
O61          C64   1.266   1_565  A
O61         Cd66   2.573   1_655  S
C62          O71   1.258       .  A
C62          O67   1.273       .  A
C62         C232   1.465       .  S
O63          C69   1.263   1_565  A
O63         Cd66   2.495       .  S
C64          O72   1.263   1_655  A
C64          C87   1.533       .  S
C65          O70   1.250       .  A
C65          O68   1.264       .  A
C65         C305   1.435       .  S
Cd66         O73   2.434   1_565  S
Cd66         O72   2.326   1_565  S
Cd66         O71   2.373       .  S
Cd66         O67   2.460       .  S
Cd66         O70   2.251       .  S
Cd66         O68   2.368       .  S
C69          O73   1.276       .  A
C69         C557   1.537       .  S
O74          C77   1.269       .  A
O74         Cd79   2.458       .  S
C75          O84   1.266       .  A
C75          O80   1.264       .  A
C75         C222   1.464       .  S
O76          C82   1.261       .  A
O76         Cd79   2.585       .  S
C77          O85   1.258       .  A
C77          C89   1.542       .  S
C78          O83   1.261       .  A
C78          O81   1.273       .  A
C78         C315   1.432       .  S
Cd79         O86   2.518       .  S
Cd79         O85   2.523       .  S
Cd79         O84   2.460       .  S
Cd79         O80   2.435       .  S
Cd79         O83   2.357       .  S
Cd79         O81   2.307       .  S
C82          O86   1.268       .  A
C82         C119   1.557       .  S
C87         C205   1.601       .  S
C87         C552   1.534       .  S
C87         C655   1.599       .  S
C88         C185   1.645       .  S
C88         C195   1.606       .  S
C88         C202   1.658       .  S
C88         C265   1.652       .  S
C89          C99   1.504       .  S
C89         C175   1.611       .  S
C89         C182   1.617       .  S
C90         C162   1.619       .  S
C90         C172   1.637       .  S
C90         C212   1.638       .  S
C90         C245   1.675       .  S
O91          C94   1.266   1_545  A
O91         Cd96   2.453   1_545  S
C92         O101   1.263   1_545  A
C92          O97   1.279       .  A
C92         C119   1.520       .  S
O93          C99   1.264   1_565  A
O93         Cd96   2.508       .  S
C94         O102   1.259       .  A
C94         C165   1.459       .  S
C95         O100   1.263       .  A
C95          O98   1.259       .  A
C95         C425   1.443       .  S
Cd96        O103   2.239   1_565  S
Cd96        O102   2.381       .  S
Cd96        O101   2.494       .  S
Cd96         O97   2.403   1_565  S
Cd96        O100   2.340       .  S
Cd96         O98   2.250       .  S
C99         O103   1.267       .  A
O104        C107   1.272   1_455  A
O104       Cd109   2.478       .  S
C105        O114   1.265       .  A
C105        O110   1.273       .  A
C105        C117   1.545       .  S
O106        C112   1.264       .  A
O106       Cd109   2.505   1_655  S
C107        O115   1.264       .  A
C107        C192   1.486       .  S
C108        O113   1.269       .  A
C108        O111   1.260       .  A
C108        C405   1.443       .  S
Cd109       O116   2.379   1_455  S
Cd109       O115   2.412   1_455  S
Cd109       O114   2.471       .  S
Cd109       O110   2.492       .  S
Cd109       O113   2.334       .  S
Cd109       O111   2.271       .  S
C112        O116   1.274       .  A
C112        C527   1.534   1_554  S
C117        C142   1.612   1_545  S
C117        C155   1.605       .  S
C117        C509   1.537   1_554  S
C118        C132   1.650       .  S
C118        C145   1.664       .  S
C118        C235   1.567       .  S
C118        C325   1.655       .  S
C119        C125   1.624       .  S
C119        C135   1.636   1_545  S
C120        C122   1.654       .  S
C120        C152   1.640       .  S
C120        C355   1.677       .  S
C120        C665   1.596       .  S
C121        C122   1.452       .  A
C121        C126   1.450       .  A
C121       Br128   1.932       .  S
C122        C123   1.462       .  A
C123        C124   1.417       .  A
C123       Br130   1.934       .  S
C124        C125   1.432       .  A
C124       Br129   1.975       .  S
C125        C126   1.426       .  A
C126       Br127   1.918       .  S
C131        C132   1.414       .  A
C131        C136   1.445       .  A
C131       Br138   1.939       .  S
C132        C133   1.451       .  A
C133        C134   1.433       .  A
C133       Br140   1.963       .  S
C134        C135   1.437       .  A
C134       Br139   1.933       .  S
C135        C136   1.456       .  A
C136       Br137   1.931       .  S
C141        C142   1.411   1_545  A
C141        C146   1.419   1_545  A
C141       Br148   1.902       .  S
C142        C143   1.435       .  A
C143        C144   1.429       .  A
C143       Br150   1.932       .  S
C144        C145   1.470       .  A
C144       Br149   1.963       .  S
C145        C146   1.445       .  A
C146       Br147   1.896       .  S
C151        C152   1.428       .  A
C151        C596   1.423       .  A
C151       Br158   1.931       .  S
C152        C153   1.461       .  A
C153        C594   1.433       .  A
C153       Br160   1.906       .  S
C154        C155   1.417   1_556  A
C154        C593   1.433       .  A
C154       Br159   1.950   1_545  S
C155        C156   1.426   1_554  A
C156        C591   1.423       .  A
C156       Br157   1.886   1_556  S
C161        C162   1.467       .  A
C161        C606   1.416   1_554  A
C161       Br168   1.905       .  S
C162        C603   1.454   1_554  A
C163        C164   1.406       .  A
C163        C602   1.454       .  A
C163       Br170   1.939       .  S
C164        C165   1.392       .  A
C164       Br169   1.945       .  S
C165        C166   1.379       .  A
C166        C601   1.416       .  A
C166       Br167   1.952   1_565  S
C171        C172   1.460       .  A
C171        C176   1.429       .  A
C171       Br178   1.946       .  S
C172        C173   1.429       .  A
C173        C174   1.434       .  A
C173       Br180   1.923       .  S
C174        C175   1.436   1_565  A
C174       Br179   1.933       .  S
C175        C176   1.403   1_545  A
C176       Br177   1.909   1_565  S
C181        C182   1.452       .  A
C181        C186   1.440       .  A
C181       Br188   1.936       .  S
C182        C183   1.401       .  A
C183        C184   1.431       .  A
C183       Br190   1.933       .  S
C184        C185   1.471       .  A
C184       Br189   1.941       .  S
C185        C186   1.423       .  A
C186       Br187   1.952       .  S
C191        C192   1.392       .  A
C191        C196   1.412       .  A
C191       Br198   1.948       .  S
C192        C193   1.406       .  A
C193        C194   1.422       .  A
C193       Br200   1.940   1_655  S
C194        C195   1.453       .  A
C194       Br199   1.937       .  S
C195        C196   1.457       .  A
C196       Br197   1.922       .  S
C201        C202   1.458       .  A
C201        C206   1.438       .  A
C201       Br208   1.944       .  S
C202        C203   1.463       .  A
C203        C204   1.423       .  A
C203       Br210   1.916       .  S
C204        C205   1.410       .  A
C204       Br209   1.951       .  S
C205        C206   1.433       .  A
C206       Br207   1.947   1_655  S
C211        C212   1.442       .  A
C211        C216   1.438       .  A
C211       Br218   1.925       .  S
C212        C213   1.458   1_565  A
C213        C654   1.425       .  A
C213       Br660   1.933       .  S
C214        C653   1.425       .  A
C214        C655   1.418       .  A
C214       Br219   1.954       .  S
C215        C527   1.599   1_554  S
C215        C216   1.433   1_545  A
C215        C654   1.418       .  A
C216       Br217   1.932       .  S
Br220       C653   1.933       .  S
C221        C222   1.407       .  A
C221        C226   1.428   1_554  A
C221       Br228   1.924       .  S
C222        C223   1.385       .  A
C223        C224   1.379       .  A
C223       Br230   1.938       .  S
C224        C225   1.423   1_554  A
C224       Br229   1.891       .  S
C225        C560   1.596       .  S
C225        C226   1.444       .  A
C226       Br667   1.929       .  S
Br227       C666   1.929       .  S
C231        C232   1.394       .  A
C231        C236   1.400       .  A
C231       Br238   1.942   1_565  S
C232        C233   1.412       .  A
C233        C234   1.412       .  A
C233       Br240   1.929       .  S
C234        C235   1.427       .  A
C234       Br239   1.941       .  S
C235        C236   1.448       .  A
C236       Br237   1.921   1_565  S
C241        C242   1.470       .  A
C241        C246   1.435       .  A
C241       Br688   1.952   1_554  S
C242        C243   1.459       .  A
C243        C244   1.464       .  A
C243       Br250   1.919       .  S
C244        C245   1.442       .  A
C244       Br249   1.935       .  S
C245        C246   1.444       .  A
C246       Br687   1.966       .  S
Br247       C686   1.966       .  S
Br248       C681   1.952       .  S
C251        C252   1.461       .  A
C251        C256   1.436       .  A
C251       Br258   1.947       .  S
C252        C253   1.419       .  A
C253        C254   1.434       .  A
C253       Br260   1.931       .  S
C254        C255   1.446       .  A
C254       Br259   1.937       .  S
C255        C256   1.410       .  A
C256       Br257   1.905       .  S
C261        C262   1.453       .  A
C261        C266   1.440       .  A
C261       Br268   1.907       .  S
C262        C263   1.441       .  A
C263        C264   1.432       .  A
C263       Br270   1.920       .  S
C264        C265   1.442       .  A
C264       Br269   1.906       .  S
C265        C266   1.436       .  A
C266       Br267   1.936       .  S
C271        C272   1.445       .  A
C271        C276   1.440       .  A
C271       Br278   1.936       .  S
C272        C273   1.426       .  A
C273        C274   1.426       .  A
C273       Br280   1.937       .  S
C274        C275   1.450       .  A
C274       Br279   1.934       .  S
C275        C276   1.422       .  A
C276       Br277   1.923       .  S
C281        C282   1.433       .  A
C281        C286   1.425       .  A
C281       Br288   1.946       .  S
C282        C283   1.448       .  A
C283        C284   1.432       .  A
C283       Br290   1.922       .  S
C284        C285   1.420       .  A
C284       Br289   1.932       .  S
C285        C286   1.438       .  A
C286       Br287   1.926       .  S
C291        C292   1.419       .  A
C291        C296   1.424       .  A
C291       Br298   1.944       .  S
C292        C497   1.618   1_554  S
C292        C293   1.446       .  A
C293        C294   1.444       .  A
C293       Br300   1.927       .  S
C294        C295   1.434       .  A
C294       Br299   1.926       .  S
C295        C296   1.460       .  A
C296       Br297   1.954       .  S
C301        C302   1.404   1_655  A
C301        C306   1.386       .  A
C301       Br308   1.932       .  S
C302        C303   1.404       .  A
C303        C304   1.384       .  A
C303       Br310   1.943       .  S
C304        C305   1.416       .  A
C304       Br309   1.943       .  S
C305        C306   1.406   1_455  A
C306       Br307   1.937       .  S
C311        C312   1.408       .  A
C311        C316   1.390       .  A
C311       Br318   1.938       .  S
C312        C313   1.407       .  A
C313        C314   1.393       .  A
C313       Br320   1.928       .  S
C314        C315   1.393       .  A
C314       Br319   1.920       .  S
C315        C316   1.397       .  A
C316       Br317   1.920       .  S
C321        C322   1.449       .  A
C321        C326   1.422       .  A
C321       Br328   1.935       .  S
C322        C323   1.465       .  A
C323        C324   1.469       .  A
C323       Br330   1.929       .  S
C324        C325   1.447       .  A
C324       Br329   1.931       .  S
C325        C326   1.425       .  A
C326       Br327   1.916       .  S
C331        C332   1.393       .  A
C331        C336   1.413       .  A
C331       Br338   1.944       .  S
C332        C333   1.382       .  A
C333        C334   1.415       .  A
C333       Br340   1.959       .  S
C334        C335   1.463       .  A
C334       Br339   1.889       .  S
C335        C336   1.462       .  A
C336       Br337   1.941       .  S
C341        C342   1.424       .  A
C341        C346   1.445       .  A
C341       Br348   1.943       .  S
C342        C343   1.439       .  A
C343        C344   1.411       .  A
C343       Br350   1.947       .  S
C344        C345   1.427       .  A
C344       Br349   1.933       .  S
C345        C346   1.449       .  A
C346       Br347   1.930       .  S
C351        C352   1.441       .  A
C351        C356   1.414       .  A
C351       Br798   1.938       .  S
C352        C353   1.458       .  A
C353        C354   1.470       .  A
C353       Br360   1.925       .  S
C354        C355   1.457       .  A
C354       Br359   1.913       .  S
C355        C356   1.440       .  A
C356       Br797   1.902       .  S
Br357       C796   1.902   1_554  S
Br358       C791   1.938   1_554  S
C361        C366   1.426       .  A
C361        C802   1.419       .  A
C361       Br368   1.947       .  S
C362        C363   1.424       .  A
C362        C801   1.419   1_554  A
C363        C364   1.434   1_554  A
C363       Br370   1.901       .  S
C364        C805   1.431       .  A
C364       Br369   1.925       .  S
C365        C366   1.459       .  A
C365        C804   1.431       .  A
C366       Br367   1.925       .  S
C371        C372   1.378       .  A
C371        C376   1.407   1_554  A
C371       Br378   1.948       .  S
C372        C373   1.386       .  A
C373        C374   1.401       .  A
C373       Br380   1.949       .  S
C374        C375   1.460   1_554  A
C374       Br379   1.934       .  S
C375        C468   1.610       .  S
C375        C376   1.464       .  A
C376       Br817   1.915       .  S
Br377       C816   1.915       .  S
C381        C382   1.424       .  A
C381        C386   1.409       .  A
C381       Br388   1.923       .  S
C382        C383   1.442       .  A
C383        C384   1.437       .  A
C383       Br390   1.933       .  S
C384        C385   1.425       .  A
C384       Br389   1.933       .  S
C385        C386   1.435       .  A
C386       Br387   1.948       .  S
C391        C392   1.433       .  A
C391        C396   1.427       .  A
C391       Br398   1.918       .  S
C392        C393   1.422       .  A
C393        C394   1.422       .  A
C393       Br400   1.950       .  S
C394        C395   1.456       .  A
C394       Br399   1.941       .  S
C395        C396   1.429       .  A
C396       Br397   1.924       .  S
C401        C402   1.408       .  A
C401        C406   1.383       .  A
C401       Br408   1.936   1_554  S
C402        C403   1.409       .  A
C403        C404   1.386       .  A
C403       Br410   1.936       .  S
C404        C405   1.407       .  A
C404       Br409   1.936       .  S
C405        C406   1.400       .  A
C406       Br407   1.929   1_554  S
C411        C412   1.414       .  A
C411        C416   1.424       .  A
C411       Br418   1.920   1_655  S
C412        C413   1.392       .  A
C413        C414   1.389       .  A
C413       Br420   1.912       .  S
C414        C415   1.422       .  A
C414       Br419   1.927       .  S
C415        C416   1.421       .  A
C416       Br417   1.927       .  S
C421        C422   1.415       .  A
C421        C426   1.390       .  A
C421       Br428   1.942       .  S
C422        C423   1.404       .  A
C423        C424   1.375       .  A
C423       Br430   1.936       .  S
C424        C425   1.406       .  A
C424       Br429   1.938       .  S
C425        C426   1.410       .  A
C426       Br427   1.938       .  S
C431        C436   1.408       .  A
C431        C872   1.453       .  A
C431       Br438   1.951       .  S
C432        C433   1.435       .  A
C432        C871   1.453   1_554  A
C433        C874   1.419       .  A
C433       Br440   1.917       .  S
C434        C435   1.406       .  A
C434        C873   1.419       .  A
C434       Br439   1.934       .  S
C435        C436   1.403       .  A
C436       Br437   1.938       .  S
O441        C444   1.276       .  A
O441       Cd446   2.499       .  S
C442        O451   1.261       .  A
C442        O447   1.268       .  A
C442        C467   1.537       .  S
O443        C449   1.253       .  A
O443       Cd446   2.274       .  S
C444        O452   1.262       .  A
C444        C875   1.483       .  S
C445        O450   1.267       .  A
C445        O448   1.270       .  A
C445        C499   1.532       .  S
Cd446       O453   2.346       .  S
Cd446       O452   2.412       .  S
Cd446       O451   2.420       .  S
Cd446       O447   2.493       .  S
Cd446       O450   2.562       .  S
Cd446       O448   2.380       .  S
C449        O453   1.259       .  A
C449        C862   1.433       .  S
O454        C457   1.272       .  A
O454       Cd459   2.525       .  S
C455        O464   1.258       .  A
C455        O460   1.275       .  A
C455        C852   1.467       .  S
O456        C462   1.253       .  A
O456       Cd459   2.504   1_655  S
C457        O465   1.265       .  A
C457        C469   1.550       .  S
C458        O463   1.270       .  A
C458        O461   1.263       .  A
C458        C842   1.425       .  S
Cd459       O466   2.442   1_455  S
Cd459       O465   2.466       .  S
Cd459       O464   2.445   1_455  S
Cd459       O460   2.454   1_455  S
Cd459       O463   2.304       .  S
Cd459       O461   2.256       .  S
C462        O466   1.271       .  A
C467        C475   1.538       .  S
C467        C822   1.607       .  S
C467        C832   1.595       .  S
C468        C792   1.674       .  S
C468        C805   1.636       .  S
C468        C825   1.613       .  S
C469        C785   1.615       .  S
C469        C802   1.602       .  S
C470        C762   1.679       .  S
C470        C775   1.631       .  S
C470        C782   1.629       .  S
C470        C835   1.625       .  S
O471        C474   1.269       .  A
O471       Cd476   2.467       .  S
C472        O481   1.261       .  A
C472        O477   1.263       .  A
C472        C812   1.445       .  S
O473        C479   1.261       .  A
O473       Cd476   2.319       .  S
C474        O482   1.257       .  A
C474        C499   1.529       .  S
C475        O480   1.259       .  A
C475        O478   1.270       .  A
Cd476       O483   2.383       .  S
Cd476       O482   2.460       .  S
Cd476       O481   2.399       .  S
Cd476       O477   2.386       .  S
Cd476       O480   2.513       .  S
Cd476       O478   2.430       .  S
C479        O483   1.269       .  A
C479        C752   1.433       .  S
O484        C487   1.252       .  A
O484       Cd489   2.472   1_655  S
C485        O494   1.260       .  A
C485        O490   1.265       .  A
C485        C772   1.469       .  S
O486        C492   1.256       .  A
O486       Cd489   2.245       .  S
C487        O495   1.274       .  A
C487        C497   1.534       .  S
C488        O493   1.262       .  A
C488        O491   1.275       .  A
Cd489       O496   2.365       .  S
Cd489       O495   2.466   1_455  S
Cd489       O494   2.385       .  S
Cd489       O490   2.442       .  S
Cd489       O493   2.506       .  S
Cd489       O491   2.372       .  S
C492        O496   1.264       .  A
C492        C742   1.424       .  S
C497        C722   1.621       .  S
C498        C702   1.668       .  S
C498        C712   1.626       .  S
C498        C725   1.630       .  S
C498        C855   1.598       .  S
C499        C695   1.622       .  S
C499        C715   1.629       .  S
C500        C682   1.691       .  S
C500        C692   1.652       .  S
C500        C735   1.638       .  S
C500        C872   1.607       .  S
O501        C504   1.266   1_565  A
O501       Cd506   2.573   1_655  S
C502        O511   1.258       .  A
C502        O507   1.273       .  A
C502        C672   1.465       .  S
O503        C509   1.263   1_565  A
O503       Cd506   2.495       .  S
C504        O512   1.263   1_655  A
C504        C527   1.533       .  S
C505        O510   1.250       .  A
C505        O508   1.264       .  A
C505        C745   1.435       .  S
Cd506       O513   2.434   1_565  S
Cd506       O512   2.326   1_565  S
Cd506       O511   2.373       .  S
Cd506       O507   2.460       .  S
Cd506       O510   2.251       .  S
Cd506       O508   2.368       .  S
C509        O513   1.276       .  A
O514        C517   1.269       .  A
O514       Cd519   2.458       .  S
C515        O524   1.266       .  A
C515        O520   1.264       .  A
C515        C662   1.464       .  S
O516        C522   1.261       .  A
O516       Cd519   2.585       .  S
C517        O525   1.258       .  A
C517        C529   1.542       .  S
C518        O523   1.261       .  A
C518        O521   1.273       .  A
C518        C755   1.432       .  S
Cd519       O526   2.518       .  S
Cd519       O525   2.523       .  S
Cd519       O524   2.460       .  S
Cd519       O520   2.435       .  S
Cd519       O523   2.357       .  S
Cd519       O521   2.307       .  S
C522        O526   1.268       .  A
C522        C559   1.557       .  S
C527        C645   1.601       .  S
C528        C625   1.645       .  S
C528        C635   1.606       .  S
C528        C642   1.658       .  S
C528        C705   1.652       .  S
C529        C539   1.504       .  S
C529        C615   1.611       .  S
C529        C622   1.617       .  S
C530        C602   1.619       .  S
C530        C612   1.637       .  S
C530        C652   1.638       .  S
C530        C685   1.675       .  S
O531        C534   1.266   1_545  A
O531       Cd536   2.453   1_545  S
C532        O541   1.263   1_545  A
C532        O537   1.279       .  A
C532        C559   1.520       .  S
O533        C539   1.264   1_565  A
O533       Cd536   2.508       .  S
C534        O542   1.259       .  A
C534        C605   1.459       .  S
C535        O540   1.263       .  A
C535        O538   1.259       .  A
C535        C865   1.443       .  S
Cd536       O543   2.239   1_565  S
Cd536       O542   2.381       .  S
Cd536       O541   2.494       .  S
Cd536       O537   2.403   1_565  S
Cd536       O540   2.340       .  S
Cd536       O538   2.250       .  S
C539        O543   1.267       .  A
O544        C547   1.272   1_455  A
O544       Cd549   2.478       .  S
C545        O554   1.265       .  A
C545        O550   1.273       .  A
C545        C557   1.545       .  S
O546        C552   1.264       .  A
O546       Cd549   2.505   1_655  S
C547        O555   1.264       .  A
C547        C632   1.486       .  S
C548        O553   1.269       .  A
C548        O551   1.260       .  A
C548        C845   1.443       .  S
Cd549       O556   2.379   1_455  S
Cd549       O555   2.412   1_455  S
Cd549       O554   2.471       .  S
Cd549       O550   2.492       .  S
Cd549       O553   2.334       .  S
Cd549       O551   2.271       .  S
C552        O556   1.274       .  A
C557        C582   1.612   1_545  S
C557        C595   1.605       .  S
C558        C572   1.650       .  S
C558        C585   1.664       .  S
C558        C675   1.567       .  S
C558        C765   1.655       .  S
C559        C565   1.624       .  S
C559        C575   1.636   1_545  S
C560        C562   1.654       .  S
C560        C592   1.640       .  S
C560        C795   1.677       .  S
C561        C562   1.452       .  A
C561        C566   1.450       .  A
C561       Br568   1.932       .  S
C562        C563   1.462       .  A
C563        C564   1.417       .  A
C563       Br570   1.934       .  S
C564        C565   1.432       .  A
C564       Br569   1.976       .  S
C565        C566   1.426       .  A
C566       Br567   1.918       .  S
C571        C572   1.414       .  A
C571        C576   1.445       .  A
C571       Br578   1.939       .  S
C572        C573   1.451       .  A
C573        C574   1.433       .  A
C573       Br580   1.963       .  S
C574        C575   1.437       .  A
C574       Br579   1.933       .  S
C575        C576   1.456       .  A
C576       Br577   1.931       .  S
C581        C582   1.411   1_545  A
C581        C586   1.419   1_545  A
C581       Br588   1.901       .  S
C582        C583   1.435       .  A
C583        C584   1.429       .  A
C583       Br590   1.932       .  S
C584        C585   1.470       .  A
C584       Br589   1.963       .  S
C585        C586   1.445       .  A
C586       Br587   1.896       .  S
C591        C592   1.428       .  A
C591       Br598   1.931       .  S
C592        C593   1.461       .  A
C593       Br600   1.906       .  S
C594        C595   1.417       .  A
C594       Br599   1.950   1_545  S
C595        C596   1.426       .  A
C596       Br597   1.886       .  S
C601        C602   1.467       .  A
C601       Br608   1.905       .  S
C603        C604   1.406       .  A
C603       Br610   1.939       .  S
C604        C605   1.392       .  A
C604       Br609   1.945       .  S
C605        C606   1.379       .  A
C606       Br607   1.952   1_566  S
C611        C612   1.460       .  A
C611        C616   1.429       .  A
C611       Br618   1.946       .  S
C612        C613   1.429       .  A
C613        C614   1.434       .  A
C613       Br620   1.923       .  S
C614        C615   1.436   1_565  A
C614       Br619   1.933       .  S
C615        C616   1.403   1_545  A
C616       Br617   1.909   1_565  S
C621        C622   1.452       .  A
C621        C626   1.440       .  A
C621       Br628   1.936       .  S
C622        C623   1.401       .  A
C623        C624   1.431       .  A
C623       Br630   1.933       .  S
C624        C625   1.471       .  A
C624       Br629   1.941       .  S
C625        C626   1.423       .  A
C626       Br627   1.952       .  S
C631        C632   1.392       .  A
C631        C636   1.412       .  A
C631       Br638   1.948       .  S
C632        C633   1.406       .  A
C633        C634   1.422       .  A
C633       Br640   1.940   1_655  S
C634        C635   1.453       .  A
C634       Br639   1.937       .  S
C635        C636   1.457       .  A
C636       Br637   1.922       .  S
C641        C642   1.458       .  A
C641        C646   1.438       .  A
C641       Br648   1.944       .  S
C642        C643   1.463       .  A
C643        C644   1.423       .  A
C643       Br650   1.916       .  S
C644        C645   1.410       .  A
C644       Br649   1.951       .  S
C645        C646   1.433       .  A
C646       Br647   1.947   1_655  S
C651        C652   1.442       .  A
C651        C656   1.438       .  A
C651       Br658   1.925       .  S
C652        C653   1.458   1_565  A
C654       Br659   1.954       .  S
C655        C656   1.433   1_545  A
C656       Br657   1.932       .  S
C661        C662   1.407       .  A
C661        C666   1.428       .  A
C661       Br668   1.924       .  S
C662        C663   1.385       .  A
C663        C664   1.379       .  A
C663       Br670   1.938       .  S
C664        C665   1.423       .  A
C664       Br669   1.891       .  S
C665        C666   1.444       .  A
C671        C672   1.394       .  A
C671        C676   1.400       .  A
C671       Br678   1.942   1_565  S
C672        C673   1.412       .  A
C673        C674   1.412       .  A
C673       Br680   1.929       .  S
C674        C675   1.427       .  A
C674       Br679   1.941       .  S
C675        C676   1.448       .  A
C676       Br677   1.921   1_565  S
C681        C682   1.470       .  A
C681        C686   1.435       .  A
C682        C683   1.459       .  A
C683        C684   1.464       .  A
C683       Br690   1.919       .  S
C684        C685   1.442       .  A
C684       Br689   1.935       .  S
C685        C686   1.444       .  A
C691        C692   1.461       .  A
C691        C696   1.436       .  A
C691       Br698   1.947       .  S
C692        C693   1.419       .  A
C693        C694   1.434       .  A
C693       Br700   1.931       .  S
C694        C695   1.446       .  A
C694       Br699   1.937       .  S
C695        C696   1.410       .  A
C696       Br697   1.905       .  S
C701        C702   1.453       .  A
C701        C706   1.440       .  A
C701       Br708   1.907       .  S
C702        C703   1.441       .  A
C703        C704   1.432       .  A
C703       Br710   1.920       .  S
C704        C705   1.442       .  A
C704       Br709   1.906       .  S
C705        C706   1.436       .  A
C706       Br707   1.936       .  S
C711        C712   1.445       .  A
C711        C716   1.440       .  A
C711       Br718   1.936       .  S
C712        C713   1.426       .  A
C713        C714   1.426       .  A
C713       Br720   1.937       .  S
C714        C715   1.450       .  A
C714       Br719   1.934       .  S
C715        C716   1.422       .  A
C716       Br717   1.923       .  S
C721        C722   1.433       .  A
C721        C726   1.425       .  A
C721       Br728   1.946       .  S
C722        C723   1.448       .  A
C723        C724   1.432       .  A
C723       Br730   1.922   1_556  S
C724        C725   1.420       .  A
C724       Br729   1.932       .  S
C725        C726   1.438       .  A
C726       Br727   1.926       .  S
C731        C732   1.419       .  A
C731        C736   1.424       .  A
C731       Br738   1.944       .  S
C732        C733   1.446       .  A
C733        C734   1.444       .  A
C733       Br740   1.927       .  S
C734        C735   1.434       .  A
C734       Br739   1.926       .  S
C735        C736   1.460       .  A
C736       Br737   1.954       .  S
C741        C742   1.404   1_655  A
C741        C746   1.386       .  A
C741       Br748   1.932       .  S
C742        C743   1.404       .  A
C743        C744   1.384       .  A
C743       Br750   1.943       .  S
C744        C745   1.416       .  A
C744       Br749   1.943       .  S
C745        C746   1.406   1_455  A
C746       Br747   1.937       .  S
C751        C752   1.408       .  A
C751        C756   1.390       .  A
C751       Br758   1.938       .  S
C752        C753   1.407       .  A
C753        C754   1.393       .  A
C753       Br760   1.928       .  S
C754        C755   1.393       .  A
C754       Br759   1.920       .  S
C755        C756   1.397       .  A
C756       Br757   1.920       .  S
C761        C762   1.449       .  A
C761        C766   1.422       .  A
C761       Br768   1.935       .  S
C762        C763   1.465       .  A
C763        C764   1.469       .  A
C763       Br770   1.929       .  S
C764        C765   1.447       .  A
C764       Br769   1.931       .  S
C765        C766   1.425       .  A
C766       Br767   1.916       .  S
C771        C772   1.393       .  A
C771        C776   1.413       .  A
C771       Br778   1.944       .  S
C772        C773   1.382       .  A
C773        C774   1.415       .  A
C773       Br780   1.959       .  S
C774        C775   1.463       .  A
C774       Br779   1.889       .  S
C775        C776   1.462       .  A
C776       Br777   1.941       .  S
C781        C782   1.424       .  A
C781        C786   1.445       .  A
C781       Br788   1.943       .  S
C782        C783   1.439       .  A
C783        C784   1.411       .  A
C783       Br790   1.947       .  S
C784        C785   1.427       .  A
C784       Br789   1.933       .  S
C785        C786   1.449       .  A
C786       Br787   1.930       .  S
C791        C792   1.441       .  A
C791        C796   1.414       .  A
C792        C793   1.458       .  A
C793        C794   1.470       .  A
C793       Br800   1.925       .  S
C794        C795   1.457       .  A
C794       Br799   1.913       .  S
C795        C796   1.440       .  A
C801        C806   1.426       .  A
C801       Br808   1.947       .  S
C802        C803   1.424       .  A
C803        C804   1.434       .  A
C803       Br810   1.901       .  S
C804       Br809   1.925       .  S
C805        C806   1.459       .  A
C806       Br807   1.925       .  S
C811        C812   1.378       .  A
C811        C816   1.407       .  A
C811       Br818   1.948       .  S
C812        C813   1.386       .  A
C813        C814   1.401       .  A
C813       Br820   1.949       .  S
C814        C815   1.460       .  A
C814       Br819   1.934       .  S
C815        C816   1.464       .  A
C821        C822   1.424       .  A
C821        C826   1.409       .  A
C821       Br828   1.923       .  S
C822        C823   1.442       .  A
C823        C824   1.437       .  A
C823       Br830   1.933       .  S
C824        C825   1.425       .  A
C824       Br829   1.933       .  S
C825        C826   1.435       .  A
C826       Br827   1.948       .  S
C831        C832   1.433       .  A
C831        C836   1.427       .  A
C831       Br838   1.918       .  S
C832        C833   1.422       .  A
C833        C834   1.422       .  A
C833       Br840   1.950       .  S
C834        C835   1.456       .  A
C834       Br839   1.941       .  S
C835        C836   1.429       .  A
C836       Br837   1.924       .  S
C841        C842   1.408       .  A
C841        C846   1.383       .  A
C841       Br848   1.936       .  S
C842        C843   1.409       .  A
C843        C844   1.386       .  A
C843       Br850   1.936       .  S
C844        C845   1.407       .  A
C844       Br849   1.936       .  S
C845        C846   1.400       .  A
C846       Br847   1.929       .  S
C851        C852   1.414       .  A
C851        C856   1.424       .  A
C851       Br858   1.920   1_655  S
C852        C853   1.392       .  A
C853        C854   1.389       .  A
C853       Br860   1.912       .  S
C854        C855   1.422       .  A
C854       Br859   1.927       .  S
C855        C856   1.421       .  A
C856       Br857   1.927       .  S
C861        C862   1.415       .  A
C861        C866   1.390       .  A
C861       Br868   1.942       .  S
C862        C863   1.404       .  A
C863        C864   1.375       .  A
C863       Br870   1.936       .  S
C864        C865   1.406       .  A
C864       Br869   1.938       .  S
C865        C866   1.410       .  A
C866       Br867   1.938       .  S
C871        C876   1.408       .  A
C871       Br878   1.951       .  S
C872        C873   1.435       .  A
C873       Br880   1.917       .  S
C874        C875   1.406   1_554  A
C874       Br879   1.934       .  S
C875        C876   1.403       .  A
C876       Br877   1.938       .  S
