geometry optimzed in LAMMPS
_audit_creation_date              2020-11-30 
_audit_creation_method            'lammps2cif' 
_symmetry_space_group_name_H-M    'P1' 
_symmetry_Int_Tables_number       1 
_symmetry_cell_setting            triclinic 
loop_ 
_symmetry_equiv_pos_as_xyz 
  x,y,z 
_cell_length_a                    26.1034115 
_cell_length_b                    26.11356770102525 
_cell_length_c                    26.092662407270257 
_cell_angle_alpha                 89.866393312503 
_cell_angle_beta                  89.9192035565659 
_cell_angle_gamma                 90.04165444409527 
loop_ 
_atom_site_label 
_atom_site_type_symbol 
_atom_site_fract_x 
_atom_site_fract_y 
_atom_site_fract_z 
_atom_site_charge 
Zn1        Zn  0.63589299  0.62431468  0.70994518     1.49700
Zn2        Zn  0.59126085  0.59353524  0.59647960     1.49400
Zn3        Zn  0.62814914  0.70695254  0.63001084     1.49100
Zn4        Zn  0.70876226  0.62400807  0.61967297     1.49500
O5          O  0.64044604  0.63591997  0.63878830    -1.83200
O6          O  0.57319691  0.58241138  0.71613550    -0.73900
O7          O  0.56589626  0.63697339  0.53402396    -0.73700
O8          O  0.58690633  0.72969234  0.69051722    -0.73200
O9          O  0.53085745  0.57046798  0.64303696    -0.73900
O10         O  0.61754846  0.68387057  0.75503191    -0.73500
O11         O  0.58930458  0.71256023  0.56523131    -0.74000
O12         O  0.72748547  0.68525424  0.57770708    -0.73400
O13         O  0.62699434  0.52798281  0.56865420    -0.74200
O14         O  0.68831754  0.75142498  0.61369410    -0.73600
O15         O  0.70562575  0.55865247  0.57975221    -0.74100
O16         O  0.76000278  0.60866775  0.67581698    -0.74000
O17         O  0.70007068  0.58816054  0.73257093    -0.73800
C18         C  0.53443960  0.56547444  0.69164731     0.78000
C19         C  0.56825636  0.68577185  0.53038017     0.78500
C20         C  0.58637353  0.71693729  0.73787234     0.77500
C21         C  0.71708584  0.73315937  0.57905623     0.77900
C22         C  0.67536557  0.52387377  0.56313040     0.79000
C23         C  0.74625077  0.58517705  0.71619884     0.78100
Zn24       Zn  0.86744864  0.54151718  0.36377298     1.49700
Zn25       Zn  0.83790621  0.65877001  0.33515654     1.49400
Zn26       Zn  0.86028146  0.61923513  0.45032157     1.49100
Zn27       Zn  0.94929199  0.62319763  0.37554535     1.49500
O28         O  0.87839834  0.61094104  0.38113626    -1.83200
O29         O  0.80606777  0.54387435  0.31858021    -0.73900
O30         O  0.81378777  0.72283678  0.37514278    -0.73700
O31         O  0.82230238  0.55542209  0.47155578    -0.73200
O32         O  0.77371200  0.62222705  0.30891794    -0.73900
O33         O  0.84384556  0.49279316  0.41843380    -0.73500
O34         O  0.81659972  0.68077300  0.44918527    -0.74000
O35         O  0.96742613  0.66729677  0.43649692    -0.73400
O36         O  0.88134096  0.67965763  0.27178744    -0.74200
O37         O  0.91507766  0.64439380  0.49959587    -0.73600
O38         O  0.95556341  0.65937937  0.30817662    -0.74100
O39         O  0.99559348  0.56157360  0.36495308    -0.74000
O40         O  0.93213624  0.51675253  0.33083282    -0.73800
C41         C  0.77127812  0.57407651  0.30194026     0.78000
C42         C  0.80327889  0.71976476  0.42277018     0.78500
C43         C  0.81813948  0.50897064  0.45622060     0.77500
C44         C  0.95126842  0.67234478  0.48267441     0.77900
C45         C  0.93014727  0.67803663  0.27063499     0.79000
C46         C  0.98003222  0.52662241  0.33489390     0.78100
Zn47       Zn  0.94741137  0.36685270  0.12151788     1.49700
Zn48       Zn  0.83266783  0.34934433  0.16421935     1.49400
Zn49       Zn  0.87767045  0.45891737  0.12361415     1.49100
Zn50       Zn  0.86058582  0.37689629  0.04631841     1.49500
O51         O  0.87933361  0.38734632  0.11470215    -1.83200
O52         O  0.94805022  0.33085685  0.18840647    -0.73900
O53         O  0.77186989  0.39708242  0.18366046    -0.73700
O54         O  0.94040873  0.47679254  0.16298280    -0.73200
O55         O  0.87355226  0.32686216  0.22949709    -0.73900
O56         O  0.99943153  0.42268852  0.13443013    -0.73500
O57         O  0.81339647  0.46792975  0.16142547    -0.74000
O58         O  0.82428151  0.44084184  0.02504241    -0.73400
O59         O  0.80395925  0.28444899  0.12861325    -0.74200
O60         O  0.86276435  0.50544023  0.06403152    -0.73600
O61         O  0.81600587  0.31573863  0.05013236    -0.74100
O62         O  0.91471476  0.35218747  0.99705790    -0.74000
O63         O  0.96187956  0.32166204  0.06088369    -0.73800
C64         C  0.92179310  0.31882890  0.22799969     0.78000
C65         C  0.77439889  0.44586006  0.18083646     0.78500
C66         C  0.98593997  0.45870394  0.16421282     0.77500
C67         C  0.82776012  0.48876711  0.03483985     0.77900
C68         C  0.79838494  0.28128056  0.08016566     0.79000
C69         C  0.94686351  0.31995910  0.01414710     0.78100
C70         C  0.74271624  0.60128048  0.98994932     0.04000
C71         C  0.78563628  0.57587892  0.01198653    -0.12100
C72         C  0.78526632  0.52199409  0.01685402     0.01500
C73         C  0.74043825  0.49588937  0.00545205    -0.10600
C74         C  0.70314526  0.51700410  0.97449730     0.04000
C75         C  0.70296283  0.57088989  0.96747123    -0.10100
H76         H  0.81842064  0.59767051  0.02495317     0.09600
H77         H  0.73724671  0.45541303  0.01465140     0.07200
H78         H  0.67341707  0.58875867  0.94446825     0.07000
C79         C  0.09818278  0.48838894  0.25476479     0.04000
C80         C  0.07213120  0.47333068  0.20956505    -0.12100
C81         C  0.01829866  0.47348506  0.20828816     0.01500
C82         C  0.99148460  0.48476118  0.25284589    -0.10600
C83         C  0.01525543  0.50274415  0.29692911     0.04000
C84         C  0.06940408  0.50485679  0.29800784    -0.10100
H85         H  0.09356521  0.46250368  0.17575163     0.09600
H86         H  0.95012344  0.48161810  0.25213243     0.07200
H87         H  0.08888294  0.51970464  0.33144178     0.07000
Zn88       Zn  0.63471739  0.37887614  0.79755926     1.49700
Zn89       Zn  0.70793484  0.37671710  0.88674410     1.49400
Zn90       Zn  0.59119098  0.40678045  0.91306951     1.49100
Zn91       Zn  0.62792127  0.29452046  0.87500765     1.49500
O92         O  0.63941568  0.36554780  0.86833252    -1.83200
O93         O  0.69850523  0.41734152  0.77728254    -0.73900
O94         O  0.70649686  0.44252336  0.92527201    -0.73700
O95         O  0.53003285  0.43068180  0.86778862    -0.73200
O96         O  0.75911014  0.39004746  0.83017856    -0.73900
O97         O  0.57062951  0.41919416  0.79339095    -0.73500
O98         O  0.62829010  0.47218438  0.94092284    -0.74000
O99         O  0.58868556  0.28724482  0.93961886    -0.73400
O100        O  0.72527613  0.31641917  0.92991462    -0.74200
O101        O  0.56620693  0.36124792  0.97492986    -0.73600
O102        O  0.68853691  0.25103178  0.89029300    -0.74100
O103        O  0.58867031  0.27216667  0.81309178    -0.74000
O104        O  0.61916869  0.32018958  0.75001215    -0.73800
C105        C  0.74506863  0.41780497  0.79278479     0.78000
C106        C  0.67691279  0.47701532  0.94340050     0.78500
C107        C  0.53238713  0.43578730  0.81906524     0.77500
C108        C  0.56781690  0.31225697  0.97598288     0.77900
C109        C  0.71497087  0.26860589  0.92697296     0.79000
C110        C  0.58877505  0.28574968  0.76594135     0.78100
Zn111      Zn  0.29166369  0.13380728  0.88143704     1.49700
Zn112      Zn  0.40875618  0.09429361  0.90846906     1.49400
Zn113      Zn  0.36972979  0.12833605  0.79546870     1.49100
Zn114      Zn  0.37753542  0.21111368  0.87725382     1.49500
O115        O  0.36258210  0.14085891  0.86675043    -1.83200
O116        O  0.28880002  0.07224968  0.92545778    -0.73900
O117        O  0.46909200  0.06628493  0.86195406    -0.73700
O118        O  0.30793865  0.08945895  0.77248891    -0.73200
O119        O  0.36436934  0.03444047  0.93791053    -0.73900
O120        O  0.24479028  0.11442565  0.82343581    -0.73500
O121        O  0.43386327  0.08762021  0.78745179    -0.74000
O122        O  0.41661297  0.23372834  0.81574653    -0.73400
O123        O  0.43907500  0.13522747  0.97034759    -0.74200
O124        O  0.38353925  0.18954819  0.75134651    -0.73600
O125        O  0.41930662  0.21281256  0.94105739    -0.74100
O126        O  0.31935929  0.25925017  0.89280230    -0.74000
O127        O  0.26724688  0.19705844  0.91767478    -0.73800
C128        C  0.31569752  0.03578638  0.94378220     0.78000
C129        C  0.46993199  0.06653187  0.81283237     0.78500
C130        C  0.26101299  0.08755712  0.78641618     0.77500
C131        C  0.41491224  0.22258724  0.76811391     0.77900
C132        C  0.44032280  0.18399902  0.97456701     0.79000
C133        C  0.28087841  0.24410714  0.91835128     0.78100
C134        C  0.50604980  0.24389538  0.09397756     0.04000
C135        C  0.53672794  0.28034089  0.06647861    -0.12100
C136        C  0.53668722  0.28062941  0.01205721     0.01500
C137        C  0.50666641  0.24529266  0.98647321    -0.10600
C138        C  0.47482534  0.21083059  0.01108375     0.04000
C139        C  0.47443183  0.20943575  0.06540336    -0.10100
H140        H  0.56062647  0.30719111  0.08710915     0.09600
H141        H  0.50685076  0.24557714  0.94476510     0.07200
H142        H  0.44906999  0.18315027  0.08521471     0.07000
C143        C  0.50025889  0.25286681  0.65274834     0.04000
C144        C  0.45599090  0.23943655  0.68101057    -0.12100
C145        C  0.45631267  0.24203201  0.73477759     0.01500
C146        C  0.50109579  0.25636060  0.75955604    -0.10600
C147        C  0.54602046  0.26784007  0.73324502     0.04000
C148        C  0.54547431  0.26752198  0.67909613    -0.10100
H149        H  0.42182040  0.22677476  0.66121940     0.09600
H150        H  0.50117616  0.25808306  0.80102847     0.07200
H151        H  0.57949102  0.27821064  0.65780184     0.07000
C152        C  0.58954307  0.00401803  0.74754626     0.04000
C153        C  0.56095286  0.03422033  0.78349575    -0.12100
C154        C  0.50648605  0.03507413  0.78170014     0.01500
C155        C  0.48189534  0.00595382  0.74477600    -0.10600
C156        C  0.50744296  0.97448452  0.71053091     0.04000
C157        C  0.56182725  0.97378216  0.71113299    -0.10100
H158        H  0.58088502  0.05747827  0.81141061     0.09600
H159        H  0.44026063  0.00668987  0.74346706     0.07200
H160        H  0.58233348  0.94919010  0.68477603     0.07000
C161        C  0.90108128  0.00160429  0.25362494     0.04000
C162        C  0.92845251  0.03342961  0.21806423    -0.12100
C163        C  0.98286528  0.03270060  0.21712535     0.01500
C164        C  0.00861183  0.00088502  0.25054098    -0.10600
C165        C  0.98418527  0.96991304  0.28587629     0.04000
C166        C  0.92988719  0.96985689  0.28791552    -0.10100
H167        H  0.90777565  0.05859499  0.19235522     0.09600
H168        H  0.05033332  0.00060340  0.24928904     0.07200
H169        H  0.91028414  0.94477643  0.31462411     0.07000
C170        C  0.24276880  0.36111455  0.99905270     0.04000
C171        C  0.26015026  0.33239671  0.95627287    -0.12100
C172        C  0.25657914  0.27845491  0.95642563     0.01500
C173        C  0.23616714  0.25413430  0.99914584    -0.10600
C174        C  0.22120336  0.28062500  0.04271183     0.04000
C175        C  0.22327103  0.33470671  0.04260609    -0.10100
H176        H  0.27714018  0.35185765  0.92375319     0.09600
H177        H  0.23303683  0.21271760  0.99921704     0.07200
H178        H  0.21016649  0.35588863  0.07572289     0.07000
C179        C  0.25049446  0.91877413  0.00701605     0.04000
C180        C  0.28619251  0.94658463  0.97626506    -0.12100
C181        C  0.28762006  0.00053959  0.97850725     0.01500
C182        C  0.25452260  0.02568558  0.01141733    -0.10600
C183        C  0.21714800  0.00067836  0.03992541     0.04000
C184        C  0.21500242  0.94648200  0.03820345    -0.10100
H185        H  0.31163268  0.92649615  0.95042589     0.09600
H186        H  0.25642568  0.06726033  0.01273021     0.07200
H187        H  0.18686718  0.92615584  0.06101595     0.07000
C188        C  0.34020661  0.00215900  0.24541094     0.04000
C189        C  0.31341481  0.04824428  0.23495541    -0.12100
C190        C  0.25934305  0.04881229  0.23677977     0.01500
C191        C  0.23352912  0.00337610  0.24742210    -0.10600
C192        C  0.25889304  0.95762669  0.25714664     0.04000
C193        C  0.31259733  0.95705291  0.25691334    -0.10100
H194        H  0.33433835  0.08282123  0.22546912     0.09600
H195        H  0.19206426  0.00357160  0.24828533     0.07200
H196        H  0.33288284  0.92208388  0.26633315     0.07000
C197        C  0.99260218  0.23210037  0.90487135     0.04000
C198        C  0.96840757  0.27448317  0.92899151    -0.12100
C199        C  0.96390848  0.27578975  0.98284453     0.01500
C200        C  0.97773698  0.23269251  0.01064714    -0.10600
C201        C  0.01048149  0.19630497  0.99028972     0.04000
C202        C  0.01710717  0.19461791  0.93636905    -0.10100
H203        H  0.95464863  0.30632188  0.90624587     0.09600
H204        H  0.96976971  0.23135789  0.05152505     0.07200
H205        H  0.04201822  0.16616122  0.91938842     0.07000
C206        C  0.99564484  0.27835206  0.35004291     0.04000
C207        C  0.03559851  0.25289137  0.32360555    -0.12100
C208        C  0.03123047  0.24432342  0.27066970     0.01500
C209        C  0.98581151  0.25668002  0.24631285    -0.10600
C210        C  0.95074789  0.28996384  0.26787338     0.04000
C211        C  0.95424395  0.29993784  0.32120283    -0.10100
H212        H  0.06870587  0.23881244  0.34421463     0.09600
H213        H  0.98014319  0.24510990  0.20673936     0.07200
H214        H  0.92587442  0.32376396  0.33983625     0.07000
Zn215      Zn  0.11700934  0.12924861  0.20989470     1.49700
Zn216      Zn  0.10430435  0.20893896  0.12641195     1.49400
Zn217      Zn  0.19766120  0.13930390  0.12786903     1.49100
Zn218      Zn  0.08590068  0.09034380  0.09627971     1.49500
O219        O  0.12592665  0.14142263  0.13867123    -1.83200
O220        O  0.10272235  0.18954431  0.25469805    -0.73900
O221        O  0.15820853  0.26057805  0.10570784    -0.73700
O222        O  0.24260502  0.12516711  0.18896974    -0.73200
O223        O  0.06730360  0.23061522  0.18927879    -0.73900
O224        O  0.17872638  0.09001944  0.23246884    -0.73500
O225        O  0.21834493  0.20284478  0.08912263    -0.74000
O226        O  0.13543104  0.03177628  0.07287620    -0.73400
O227        O  0.05971936  0.20409715  0.06465913    -0.74200
O228        O  0.20705214  0.07555635  0.08795409    -0.73600
O229        O  0.05486835  0.12564500  0.03195982    -0.74100
O230        O  0.02450989  0.06234368  0.13952245    -0.74000
O231        O  0.05210830  0.08912353  0.21548323    -0.73800
C232        C  0.07051481  0.22140096  0.23733167     0.78000
C233        C  0.19959070  0.24782220  0.08366337     0.78500
C234        C  0.22628706  0.09209822  0.22073401     0.77500
C235        C  0.18422049  0.03618599  0.07014303     0.77900
C236        C  0.04452972  0.17334092  0.02976474     0.79000
C237        C  0.01900277  0.06585764  0.18809377     0.78100
Zn238      Zn  0.29412931  0.87246808  0.61707592     1.49700
Zn239      Zn  0.37183971  0.87894298  0.70281627     1.49400
Zn240      Zn  0.37696555  0.79296122  0.62448336     1.49100
Zn241      Zn  0.41127313  0.90817102  0.58771179     1.49500
O242        O  0.36464624  0.86409322  0.63214597    -1.83200
O243        O  0.24667958  0.89069302  0.67472367    -0.73900
O244        O  0.38549968  0.81919689  0.74967132    -0.73700
O245        O  0.31743117  0.74659389  0.60957069    -0.73200
O246        O  0.30961964  0.91833037  0.72435518    -0.73900
O247        O  0.26975152  0.81018818  0.58022841    -0.73500
O248        O  0.41408966  0.76964405  0.68695885    -0.74000
O249        O  0.44116167  0.86368042  0.52810144    -0.73400
O250        O  0.43578193  0.92064629  0.70787831    -0.74200
O251        O  0.41929870  0.78817732  0.56131619    -0.73600
O252        O  0.47141212  0.93804974  0.63230884    -0.74100
O253        O  0.36855484  0.96820157  0.55627594    -0.74000
O254        O  0.29212406  0.93432643  0.57343107    -0.73800
C255        C  0.26258340  0.91898723  0.71072283     0.78000
C256        C  0.41349992  0.78270742  0.73413411     0.78500
C257        C  0.28152066  0.76270796  0.58125561     0.77500
C258        C  0.44147112  0.81471954  0.52661395     0.77900
C259        C  0.47176670  0.94065528  0.68131282     0.79000
C260        C  0.31967774  0.96914393  0.55291564     0.78100
Zn261      Zn  0.11370442  0.79478411  0.36968907     1.49700
Zn262      Zn  0.11936935  0.87605474  0.28863292     1.49400
Zn263      Zn  0.08945126  0.91181759  0.40449872     1.49100
Zn264      Zn  0.20201915  0.86824239  0.36908048     1.49500
O265        O  0.13052605  0.86372851  0.35944966    -1.83200
O266        O  0.07725651  0.77168660  0.30791984    -0.73900
O267        O  0.05401978  0.91460625  0.28575174    -0.73700
O268        O  0.05958872  0.87172282  0.46743475    -0.73200
O269        O  0.10615458  0.81676283  0.24213690    -0.73900
O270        O  0.07048603  0.79518983  0.43190953    -0.73500
O271        O  0.02716062  0.93988144  0.36258764    -0.74000
O272        O  0.21089236  0.93247199  0.40828030    -0.73400
O273        O  0.17873935  0.91679951  0.26481596    -0.74200
O274        O  0.13795267  0.97160235  0.42886305    -0.73600
O275        O  0.24414065  0.88200137  0.30619750    -0.74100
O276        O  0.22474229  0.80592370  0.40860751    -0.74000
O277        O  0.16960847  0.74524329  0.38705284    -0.73800
C278        C  0.07782709  0.78168431  0.26000521     0.78000
C279        C  0.02114326  0.93710338  0.31402160     0.78500
C280        C  0.05270976  0.82324219  0.46775546     0.77500
C281        C  0.18704964  0.97005819  0.42836293     0.77900
C282        C  0.22653353  0.91483914  0.27491314     0.79000
C283        C  0.20833214  0.75983504  0.41219908     0.78100
C284        C  0.99358310  0.76465457  0.59087810     0.04000
C285        C  0.97045254  0.72140788  0.56697811    -0.12100
C286        C  0.97168522  0.71617202  0.51308382     0.01500
C287        C  0.99200973  0.75596903  0.48420028    -0.10600
C288        C  0.01975825  0.79591703  0.50569619     0.04000
C289        C  0.02016827  0.80106773  0.55970791    -0.10100
H290        H  0.95307185  0.69170053  0.59021087     0.09600
H291        H  0.98889775  0.75442194  0.44275126     0.07200
H292        H  0.04216256  0.83145684  0.57731715     0.07000
C293        C  0.25809140  0.08704804  0.48721477     0.04000
C294        C  0.22075290  0.05979803  0.45780839    -0.12100
C295        C  0.21988239  0.00554223  0.45865355     0.01500
C296        C  0.25572934  0.97992034  0.48825440    -0.10600
C297        C  0.29161133  0.00465362  0.51843607     0.04000
C298        C  0.29338078  0.05874012  0.51796016    -0.10100
H299        H  0.19338148  0.08050772  0.43454122     0.09600
H300        H  0.25494717  0.93828098  0.48880928     0.07200
H301        H  0.32045615  0.07861239  0.54225631     0.07000
C302        C  0.24080648  0.64657127  0.50099261     0.04000
C303        C  0.22569016  0.67320373  0.45593078    -0.12100
C304        C  0.22847595  0.72716959  0.45394068     0.01500
C305        C  0.24440251  0.75356184  0.49707428    -0.10600
C306        C  0.25888487  0.72894523  0.54197167     0.04000
C307        C  0.25788208  0.67493124  0.54397503    -0.10100
H308        H  0.21211995  0.65213216  0.42296380     0.09600
H309        H  0.24566121  0.79502291  0.49555121     0.07200
H310        H  0.27111575  0.65516362  0.57798739     0.07000
C311        C  0.00002730  0.72669730  0.14801582     0.04000
C312        C  0.04020365  0.75234158  0.17402972    -0.12100
C313        C  0.03960899  0.75554561  0.22783711     0.01500
C314        C  0.99812487  0.73604090  0.25448011    -0.10600
C315        C  0.96113350  0.70607601  0.23176193     0.04000
C316        C  0.96079034  0.70187789  0.17749885    -0.10100
H317        H  0.07078763  0.77041169  0.15253379     0.09600
H318        H  0.99507340  0.74269516  0.29547057     0.07200
H319        H  0.93119927  0.67979893  0.15863558     0.07000
C320        C  0.14752746  0.00228009  0.74844910     0.04000
C321        C  0.17525288  0.95907202  0.73100006    -0.12100
C322        C  0.22925756  0.95955583  0.73180636     0.01500
C323        C  0.25444574  0.00360668  0.74766417    -0.10600
C324        C  0.22843438  0.04680325  0.76450525     0.04000
C325        C  0.17447233  0.04596114  0.76594901    -0.10100
H326        H  0.15501071  0.92571150  0.71701442     0.09600
H327        H  0.29595054  0.00415950  0.74719710     0.07200
H328        H  0.15363264  0.07876718  0.78034927     0.07000
C329        C  0.75717414  0.15788449  0.01314878     0.04000
C330        C  0.73622289  0.18291140  0.96983375    -0.12100
C331        C  0.72917708  0.23620455  0.97094183     0.01500
C332        C  0.73625411  0.26192584  0.01682228    -0.10600
C333        C  0.76699684  0.24144815  0.05479515     0.04000
C334        C  0.77665740  0.18810287  0.05425922    -0.10100
H335        H  0.72587005  0.16125473  0.93602847     0.09600
H336        H  0.72585838  0.30211496  0.01952633     0.07200
H337        H  0.79929053  0.17062529  0.08431089     0.07000
C338        C  0.49468509  0.74376420  0.85014647     0.04000
C339        C  0.54046649  0.73091961  0.82374964    -0.12100
C340        C  0.54286799  0.73452977  0.76988473     0.01500
C341        C  0.49921220  0.74919522  0.74331211    -0.10600
C342        C  0.45350942  0.76132822  0.76785242     0.04000
C343        C  0.45120222  0.75950491  0.82182226    -0.10100
H344        H  0.57379718  0.71851620  0.84503767     0.09600
H345        H  0.50092501  0.75165319  0.70188288     0.07200
H346        H  0.41656850  0.77102109  0.84155960     0.07000
C347        C  0.51280549  0.75421936  0.41051800     0.04000
C348        C  0.47962784  0.78841553  0.43760021    -0.12100
C349        C  0.47553478  0.78525504  0.49169925     0.01500
C350        C  0.50389693  0.74861058  0.51745543    -0.10600
C351        C  0.53713774  0.71542128  0.49321313     0.04000
C352        C  0.54209552  0.71782571  0.43919492    -0.10100
H353        H  0.45633761  0.81567888  0.41672463     0.09600
H354        H  0.50091314  0.74648122  0.55903558     0.07200
H355        H  0.56810939  0.69208122  0.41976203     0.07000
C356        C  0.75909307  0.84297564  0.49040795     0.04000
C357        C  0.73841093  0.81830691  0.53424738    -0.12100
C358        C  0.73401687  0.76468926  0.53511863     0.01500
C359        C  0.74452072  0.73774316  0.49067829    -0.10600
C360        C  0.77345249  0.75882061  0.45139010     0.04000
C361        C  0.77996393  0.81261295  0.45004412    -0.10100
H362        H  0.72589945  0.84060147  0.56688576     0.09600
H363        H  0.73538715  0.69721715  0.48895016     0.07200
H364        H  0.80100922  0.83041788  0.41895905     0.07000
C365        C  0.41609441  0.49967096  0.75257390     0.04000
C366        C  0.44462991  0.53224110  0.71909340    -0.12100
C367        C  0.49858310  0.53348937  0.72210748     0.01500
C368        C  0.52287298  0.50314267  0.75816687    -0.10600
C369        C  0.49705238  0.46938311  0.78992247     0.04000
C370        C  0.44297631  0.46737142  0.78768370    -0.10100
H371        H  0.42503548  0.55658227  0.69180771     0.09600
H372        H  0.56440398  0.50455872  0.76061642     0.07200
H373        H  0.42218932  0.44105767  0.81220902     0.07000
C374        C  0.86133513  0.49999817  0.75252759     0.04000
C375        C  0.83408918  0.54405786  0.73559257    -0.12100
C376        C  0.78006579  0.54571040  0.73931074     0.01500
C377        C  0.75439660  0.50347952  0.75904448    -0.10600
C378        C  0.77923693  0.45847516  0.77252786     0.04000
C379        C  0.83328398  0.45684252  0.77055836    -0.10100
H380        H  0.85469140  0.57637038  0.71965433     0.09600
H381        H  0.71304674  0.50498541  0.76250873     0.07200
H382        H  0.85330106  0.42284683  0.78328311     0.07000
C383        C  0.73268014  0.39882261  0.50648238     0.04000
C384        C  0.77415285  0.42338277  0.48079063    -0.12100
C385        C  0.77673093  0.47739706  0.47893490     0.01500
C386        C  0.73608387  0.50543121  0.49795032    -0.10600
C387        C  0.69975668  0.48424277  0.53011997     0.04000
C388        C  0.69668930  0.43000412  0.53385946    -0.10100
H389        H  0.80408101  0.40074866  0.46316645     0.09600
H390        H  0.73512191  0.54658389  0.49160758     0.07200
H391        H  0.66815048  0.41242124  0.55841252     0.07000
C392        C  0.65454480  0.50945454  0.24101590     0.04000
C393        C  0.68342592  0.47407826  0.21097982    -0.12100
C394        C  0.73701979  0.48043001  0.20614383     0.01500
C395        C  0.75968838  0.52263904  0.22883063    -0.10600
C396        C  0.73482666  0.55107731  0.26561014     0.04000
C397        C  0.68129952  0.54594239  0.27140330    -0.10100
H398        H  0.66441588  0.44303266  0.19122200     0.09600
H399        H  0.80055321  0.52919362  0.22397977     0.07200
H400        H  0.66105009  0.56888167  0.29934619     0.07000
Zn401      Zn  0.13545231  0.36996065  0.71063925     1.49700
Zn402      Zn  0.09543537  0.40778415  0.59900054     1.49400
Zn403      Zn  0.21000866  0.36658693  0.61971344     1.49100
Zn404      Zn  0.12143191  0.29039918  0.62608603     1.49500
O405        O  0.14084938  0.35891742  0.63869447    -1.83200
O406        O  0.07251906  0.41143137  0.71732957    -0.73900
O407        O  0.13542967  0.47116244  0.57498147    -0.73700
O408        O  0.25895553  0.38668105  0.67694591    -0.73200
O409        O  0.03449799  0.43011518  0.64345588    -0.73900
O410        O  0.19842710  0.40972091  0.73233036    -0.73500
O411        O  0.20997239  0.42992727  0.57639084    -0.74000
O412        O  0.17609035  0.24059566  0.60270426    -0.73400
O413        O  0.06685283  0.37433589  0.53421882    -0.74200
O414        O  0.22979862  0.30260287  0.57994746    -0.73600
O415        O  0.07659983  0.29525686  0.56424481    -0.74100
O416        O  0.08397759  0.26747138  0.68924743    -0.74000
O417        O  0.11568129  0.30969644  0.75572408    -0.73800
C418        C  0.03547968  0.43100469  0.69224237     0.78000
C419        C  0.18270792  0.46853383  0.56332545     0.78500
C420        C  0.24439318  0.41298057  0.71532207     0.77500
C421        C  0.21385363  0.25622731  0.57624121     0.77900
C422        C  0.05938292  0.32641707  0.53051256     0.79000
C423        C  0.08432491  0.27734352  0.73732236     0.78100
Zn424      Zn  0.65751182  0.15631564  0.34341655     1.49700
Zn425      Zn  0.61882332  0.11628641  0.45707482     1.49400
Zn426      Zn  0.54084204  0.12429970  0.37478998     1.49100
Zn427      Zn  0.61852035  0.04069419  0.37219009     1.49500
O428        O  0.61034362  0.11057821  0.38562499    -1.83200
O429        O  0.67954011  0.21892261  0.39074140    -0.73900
O430        O  0.55645707  0.12739988  0.50088710    -0.73700
O431        O  0.53969989  0.16202581  0.30864440    -0.73200
O432        O  0.65393476  0.18279746  0.46363778    -0.73900
O433        O  0.61662062  0.18315748  0.27856506    -0.73500
O434        O  0.51740313  0.16398137  0.43519328    -0.74000
O435        O  0.55760772  0.01807574  0.33332547    -0.73400
O436        O  0.66206622  0.05637202  0.47796540    -0.74200
O437        O  0.49387241  0.06533220  0.36280446    -0.73600
O438        O  0.63019372  0.99361891  0.43106098    -0.74100
O439        O  0.68417382  0.03733668  0.33456580    -0.74000
O440        O  0.72146730  0.11217656  0.31846365    -0.73800
C441        C  0.67485842  0.21997946  0.43973664     0.78000
C442        C  0.52510351  0.16018067  0.48344574     0.78500
C443        C  0.56773505  0.18243049  0.27399864     0.77500
C444        C  0.51003003  0.02949592  0.33456272     0.77900
C445        C  0.66273694  0.00971329  0.46300817     0.79000
C446        C  0.72163962  0.06306985  0.31638726     0.78100
C447        C  0.49826961  0.25051700  0.59591418     0.04000
C448        C  0.51221461  0.20493292  0.56996203    -0.12100
C449        C  0.50286490  0.20018429  0.51692489     0.01500
C450        C  0.47930294  0.24044977  0.49147163    -0.10600
C451        C  0.47216873  0.28779472  0.51424365     0.04000
C452        C  0.47919564  0.29264225  0.56744340    -0.10100
H453        H  0.52986464  0.17373732  0.59087125     0.09600
H454        H  0.46926520  0.23623239  0.45139727     0.07200
H455        H  0.47000607  0.32830913  0.58641780     0.07000
Zn456      Zn  0.37326396  0.44577684  0.35683076     1.49700
Zn457      Zn  0.45179420  0.36331408  0.36858185     1.49400
Zn458      Zn  0.36284127  0.36983467  0.44127535     1.49100
Zn459      Zn  0.33825569  0.32847482  0.32733680     1.49500
O460        O  0.38083225  0.37594936  0.37237033    -1.83200
O461        O  0.43698578  0.46762625  0.32112238    -0.73900
O462        O  0.47053213  0.32571690  0.43243806    -0.73700
O463        O  0.32065539  0.43006633  0.45884661    -0.73200
O464        O  0.50026276  0.42103728  0.35297664    -0.73900
O465        O  0.34986001  0.49452372  0.41209350    -0.73500
O466        O  0.41965114  0.35886694  0.49187955    -0.74000
O467        O  0.31056766  0.26606883  0.37074823    -0.73400
O468        O  0.45735440  0.32292051  0.30524134    -0.74200
O469        O  0.32427689  0.30512973  0.44486951    -0.73600
O470        O  0.38410023  0.30240281  0.26700953    -0.74100
O471        O  0.27670303  0.36985647  0.29786627    -0.74000
O472        O  0.31286000  0.44558931  0.31265626    -0.73800
C473        C  0.48436111  0.45518287  0.32238688     0.78000
C474        C  0.45499402  0.32827487  0.47889579     0.78500
C475        C  0.31969436  0.47730290  0.44615750     0.77500
C476        C  0.30673649  0.26727116  0.41960618     0.77900
C477        C  0.43307315  0.30253977  0.26813275     0.79000
C478        C  0.27688527  0.41862117  0.29375604     0.78100
C479        C  0.59722437  0.50662833  0.24206919     0.04000
C480        C  0.57147477  0.48189160  0.28330859    -0.12100
C481        C  0.51771335  0.47634245  0.28171612     0.01500
C482        C  0.49188777  0.49065749  0.23760605    -0.10600
C483        C  0.51368628  0.52304999  0.20193859     0.04000
C484        C  0.56741085  0.53023715  0.20269106    -0.10100
H485        H  0.59286994  0.46739665  0.31573599     0.09600
H486        H  0.45133136  0.48198023  0.23377684     0.07200
H487        H  0.58553241  0.55461188  0.17437995     0.07000
C488        C  0.49431011  0.74416537  0.90722509     0.04000
C489        C  0.51965507  0.78443287  0.93337854    -0.12100
C490        C  0.52443604  0.78240650  0.98700123     0.01500
C491        C  0.50948196  0.73807757  0.01224911    -0.10600
C492        C  0.47604006  0.70369395  0.98999153     0.04000
C493        C  0.46902095  0.70533880  0.93629011    -0.10100
H494        H  0.53501731  0.81673339  0.91225934     0.09600
H495        H  0.51799393  0.73342892  0.05275132     0.07200
H496        H  0.44437683  0.67774775  0.91765126     0.07000
Zn497      Zn  0.37682697  0.61612409  0.20572977     1.49700
Zn498      Zn  0.29634668  0.63100400  0.12174297     1.49400
Zn499      Zn  0.38672497  0.70466931  0.12980496     1.49100
Zn500      Zn  0.40949923  0.58962097  0.09040681     1.49500
O501        O  0.36744517  0.63551841  0.13650837    -1.83200
O502        O  0.31355237  0.57693215  0.22503662    -0.73900
O503        O  0.27531803  0.69659069  0.08601015    -0.73700
O504        O  0.42758851  0.72133861  0.19346336    -0.73200
O505        O  0.24965904  0.61009687  0.17968446    -0.73900
O506        O  0.39863255  0.67107231  0.25590400    -0.73500
O507        O  0.33035457  0.75602384  0.11187644    -0.74000
O508        O  0.43500995  0.62926614  0.02722164    -0.73400
O509        O  0.29078397  0.56950464  0.07727658    -0.74200
O510        O  0.42886889  0.70480551  0.06602511    -0.73600
O511        O  0.36534598  0.52944791  0.06621336    -0.74100
O512        O  0.47317146  0.56136562  0.12765793    -0.74000
O513        O  0.43927441  0.57246105  0.20490922    -0.73800
C514        C  0.26631461  0.57755614  0.21180291     0.78000
C515        C  0.29165046  0.74289184  0.08533070     0.78500
C516        C  0.42884801  0.70592261  0.24017270     0.77500
C517        C  0.44356094  0.67723985  0.02830882     0.77900
C518        C  0.31694951  0.53177407  0.06045800     0.79000
C519        C  0.47490251  0.55539663  0.17603203     0.78100
C520        C  0.24197962  0.58935700  0.50152794     0.04000
C521        C  0.27960958  0.56350169  0.47200306    -0.12100
C522        C  0.27999616  0.50964582  0.47038068     0.01500
C523        C  0.24044496  0.48307274  0.49383692    -0.10600
C524        C  0.20790128  0.50598854  0.52873975     0.04000
C525        C  0.20742503  0.56005675  0.53228579    -0.10100
H526        H  0.30851266  0.58506994  0.45142031     0.09600
H527        H  0.23741486  0.44193893  0.48840140     0.07200
H528        H  0.18145482  0.57888551  0.55852693     0.07000
Zn529      Zn  0.62889251  0.87916186  0.04935455     1.49700
Zn530      Zn  0.55184030  0.86016120  0.12974608     1.49400
Zn531      Zn  0.66850434  0.83439310  0.16093610     1.49100
Zn532      Zn  0.62401306  0.95004657  0.13738155     1.49500
O533        O  0.61981807  0.88050096  0.12082698    -1.83200
O534        O  0.56989710  0.86107779  0.00332384    -0.73900
O535        O  0.55154970  0.81972164  0.19442412    -0.73700
O536        O  0.69256853  0.77438330  0.11144154    -0.73200
O537        O  0.53522670  0.81921841  0.06846643    -0.73900
O538        O  0.66701283  0.81598759  0.04206668    -0.73500
O539        O  0.62934241  0.80343630  0.22484764    -0.74000
O540        O  0.68764961  0.95340948  0.17826619    -0.73400
O541        O  0.50012591  0.91564826  0.14172425    -0.74200
O542        O  0.72983021  0.87991696  0.18798083    -0.73600
O543        O  0.55951163  0.96749510  0.17353107    -0.74100
O544        O  0.63831880  0.00115971  0.08210512    -0.74000
O545        O  0.66863300  0.94173171  0.02991384    -0.73800
C546        C  0.54354808  0.82388324  0.02042613     0.78000
C547        C  0.58053385  0.80059664  0.22889033     0.78500
C548        C  0.68822867  0.77732822  0.06257684     0.77500
C549        C  0.72649042  0.92847089  0.19450218     0.77900
C550        C  0.51307416  0.95198315  0.17107024     0.79000
C551        C  0.66895666  0.98758298  0.04714017     0.78100
C552        C  0.74074225  0.65880201  0.98849504     0.04000
C553        C  0.76527773  0.68645662  0.94816990    -0.12100
C554        C  0.75951837  0.74011446  0.94513120     0.01500
C555        C  0.72815732  0.76429806  0.98019290    -0.10600
C556        C  0.71146383  0.74073033  0.02507009     0.04000
C557        C  0.71655350  0.68685040  0.02896988    -0.10100
H558        H  0.78936752  0.66669640  0.92080344     0.09600
H559        H  0.72284223  0.80530121  0.97528039     0.07200
H560        H  0.70099017  0.66691863  0.06192651     0.07000
Zn561      Zn  0.86804969  0.04983366  0.62432194     1.49700
Zn562      Zn  0.83118747  0.16267576  0.66238804     1.49400
Zn563      Zn  0.94495974  0.13569029  0.61991894     1.49100
Zn564      Zn  0.85937015  0.13162861  0.54331287     1.49500
O565        O  0.87485228  0.12084211  0.61325823    -1.83200
O566        O  0.80238913  0.04235556  0.66329856    -0.73900
O567        O  0.87575863  0.18769008  0.72514465    -0.73700
O568        O  0.99290865  0.07646663  0.63345951    -0.73200
O569        O  0.77028224  0.11728166  0.68819228    -0.73900
O570        O  0.92936651  0.02923354  0.66428898    -0.73500
O571        O  0.94927143  0.17238253  0.68540731    -0.74000
O572        O  0.91318731  0.15918746  0.49658876    -0.73400
O573        O  0.80056644  0.22491747  0.62277634    -0.74200
O574        O  0.96407936  0.18061704  0.56084706    -0.73600
O575        O  0.81266258  0.19048904  0.54563639    -0.69300
O576        O  0.82949247  0.06740836  0.51467644    -0.74000
O577        O  0.85969599  0.00442513  0.56279718    -0.73800
C578        C  0.76743868  0.06843976  0.68555056     0.78000
C579        C  0.92472682  0.18963650  0.72388147     0.78500
C580        C  0.97665665  0.04196478  0.66382334     0.77500
C581        C  0.94878861  0.18650577  0.51465007     0.77900
C582        C  0.79385646  0.22529968  0.57425970     0.79000
C583        C  0.83333934  0.01966293  0.52501397     0.78100
C584        C  0.64787369  0.00369476  0.74800836     0.04000
C585        C  0.67643617  0.03970542  0.71777052    -0.12100
C586        C  0.73083084  0.03806755  0.71726199     0.01500
C587        C  0.75559447  0.00194002  0.74706492    -0.10600
C588        C  0.73015542  0.96678591  0.77751636     0.04000
C589        C  0.67567988  0.96692541  0.77797742    -0.10100
H590        H  0.65656014  0.06744854  0.69413701     0.09600
H591        H  0.79728822  0.00131300  0.74679701     0.07200
H592        H  0.65520993  0.93980526  0.80190251     0.07000
Zn593      Zn  0.86677869  0.95389633  0.87100407     1.49700
Zn594      Zn  0.94469719  0.86761548  0.87556731     1.49400
Zn595      Zn  0.85835570  0.87074049  0.95134304     1.49100
Zn596      Zn  0.83082686  0.84140315  0.83149463     1.49500
O597        O  0.87430548  0.88247406  0.88152381    -1.83200
O598        O  0.92821369  0.97538340  0.83131121    -0.73900
O599        O  0.96508553  0.82462606  0.93639657    -0.73700
O600        O  0.82878070  0.93486185  0.98011466    -0.73200
O601        O  0.99173915  0.92750386  0.86100378    -0.73900
O602        O  0.85834189  0.99890278  0.93294112    -0.73500
O603        O  0.91144780  0.84287466  0.99941145    -0.74000
O604        O  0.80008314  0.77844864  0.87012086    -0.73400
O605        O  0.94958869  0.82930507  0.81047301    -0.74200
O606        O  0.81215818  0.81158038  0.94779828    -0.73600
O607        O  0.87637240  0.81613877  0.76940333    -0.74100
O608        O  0.77002738  0.88734205  0.80550058    -0.74000
O609        O  0.80092553  0.96210563  0.83229850    -0.73800
C610        C  0.97556279  0.96287154  0.83167062     0.78000
C611        C  0.94928130  0.81793478  0.98242250     0.78500
C612        C  0.83274028  0.98285997  0.97099185     0.77500
C613        C  0.79378685  0.77695378  0.91868358     0.77900
C614        C  0.92523076  0.81256203  0.77159326     0.79000
C615        C  0.76644791  0.93610055  0.80928420     0.78100
Zn616      Zn  0.21363062  0.63970975  0.87041875     1.49700
Zn617      Zn  0.10082459  0.59506358  0.90165497     1.49400
Zn618      Zn  0.12266943  0.71214112  0.86919713     1.49100
Zn619      Zn  0.13342898  0.62809614  0.78696160     1.49500
O620        O  0.14233115  0.64374485  0.85763349    -1.83200
O621        O  0.21942865  0.57647964  0.91144881    -0.73900
O622        O  0.07223260  0.63067131  0.96596946    -0.73700
O623        O  0.17761255  0.76258376  0.89120036    -0.73200
O624        O  0.14617401  0.53488134  0.92438697    -0.73900
O625        O  0.23484600  0.70286738  0.91064962    -0.73500
O626        O  0.07817888  0.70832213  0.93145384    -0.74000
O627        O  0.11230090  0.68663510  0.74067785    -0.73400
O628        O  0.03907108  0.56739881  0.86137616    -0.74200
O629        O  0.08465826  0.73354250  0.80606843    -0.73600
O630        O  0.07097005  0.58480971  0.78425575    -0.74100
O631        O  0.19607705  0.58801527  0.76506674    -0.74000
O632        O  0.25977424  0.62051134  0.81079058    -0.73800
C633        C  0.19473931  0.53783391  0.92845482     0.78000
C634        C  0.06251856  0.67840209  0.96708421     0.78500
C635        C  0.21720960  0.74840355  0.91566767     0.77500
C636        C  0.08319901  0.72131838  0.75857575     0.77900
C637        C  0.03648466  0.56498152  0.81270438     0.79000
C638        C  0.24342226  0.58852367  0.77790563     0.78100
C639        C  0.99611109  0.76702686  0.64835357     0.04000
C640        C  0.95552063  0.78830684  0.67860269    -0.12100
C641        C  0.95771183  0.78526148  0.73292259     0.01500
C642        C  0.99874236  0.75960870  0.75503052    -0.10600
C643        C  0.04122580  0.74358358  0.72734806     0.04000
C644        C  0.03944048  0.74581006  0.67346872    -0.10100
H645        H  0.92359233  0.80734193  0.66019504     0.09600
H646        H  0.99811964  0.75353941  0.79618309     0.07200
H647        H  0.07093937  0.73058435  0.65118901     0.07000
C648        C  0.91879448  0.49926637  0.75237670     0.04000
C649        C  0.94674086  0.53259507  0.78533296    -0.12100
C650        C  0.00072907  0.53003044  0.78661282     0.01500
C651        C  0.02570784  0.49489021  0.75624404    -0.10600
C652        C  0.00029562  0.46342781  0.72220781     0.04000
C653        C  0.94625536  0.46504521  0.71988903    -0.10100
H654        H  0.92681821  0.56017003  0.80897072     0.09600
H655        H  0.06738427  0.49360750  0.75773359     0.07200
H656        H  0.92591390  0.43991248  0.69400604     0.07000
C657        C  0.35857935  0.49972575  0.75069815     0.04000
C658        C  0.33119340  0.45504676  0.73611227    -0.12100
C659        C  0.27708664  0.45537528  0.73469476     0.01500
C660        C  0.25122983  0.50062063  0.74626405    -0.10600
C661        C  0.27662154  0.54551110  0.76021095     0.04000
C662        C  0.33071979  0.54485613  0.76301043    -0.10100
H663        H  0.35182199  0.42066318  0.72563458     0.09600
H664        H  0.20976191  0.50075173  0.74429208     0.07200
H665        H  0.35105092  0.57890073  0.77513346     0.07000
C666        C  0.75768275  0.89993405  0.48738276     0.04000
C667        C  0.71091859  0.92483758  0.47532716    -0.12100
C668        C  0.70846674  0.97869994  0.47486650     0.01500
C669        C  0.75309872  0.00649878  0.48183666    -0.10600
C670        C  0.79790384  0.98390657  0.49915959     0.04000
C671        C  0.80062388  0.92991327  0.50178133    -0.10100
H672        H  0.67691104  0.90253088  0.46717381     0.09600
H673        H  0.75154592  0.04776228  0.47762430     0.07200
H674        H  0.83491091  0.91150714  0.51614773     0.07000
C675        C  0.99501642  0.27634601  0.40731413     0.04000
C676        C  0.96910146  0.23489784  0.43126006    -0.12100
C677        C  0.97001178  0.22972324  0.48493174     0.01500
C678        C  0.99167471  0.26825767  0.51380715    -0.10600
C679        C  0.02400244  0.30425343  0.49228745     0.04000
C680        C  0.02546139  0.30960132  0.43820784    -0.10100
H681        H  0.94982878  0.20635411  0.40821003     0.09600
H682        H  0.98769751  0.26729706  0.55525666     0.07200
H683        H  0.05059557  0.33756615  0.42053527     0.07000
C684        C  0.99643264  0.23089739  0.84748496     0.04000
C685        C  0.04030555  0.25187944  0.82272838    -0.12100
C686        C  0.04197300  0.25545894  0.76876946     0.01500
C687        C  0.99880214  0.24132238  0.74114637    -0.10600
C688        C  0.95738834  0.21589207  0.76287054     0.04000
C689        C  0.95538453  0.21128735  0.81694446    -0.10100
H690        H  0.07211450  0.26591720  0.84525585     0.09600
H691        H  0.99788939  0.24843814  0.70014594     0.07200
H692        H  0.92310245  0.19237772  0.83499369     0.07000
C693        C  0.51296453  0.75276310  0.35261118     0.04000
C694        C  0.47087760  0.72971364  0.32675299    -0.12100
C695        C  0.47132518  0.72508638  0.27286761     0.01500
C696        C  0.51530104  0.73895721  0.24636439    -0.10600
C697        C  0.55324564  0.76894818  0.26823944     0.04000
C698        C  0.55325780  0.77505249  0.32244608    -0.10100
H699        H  0.43822928  0.71586453  0.34837312     0.09600
H700        H  0.51749209  0.73143211  0.20545676     0.07200
H701        H  0.58274031  0.79780664  0.34064104     0.07000
C702        C  0.84296106  0.00008787  0.25415796     0.04000
C703        C  0.81370462  0.03619757  0.28358233    -0.12100
C704        C  0.75943404  0.03211399  0.28593097     0.01500
C705        C  0.73606002  0.99279527  0.25892162    -0.10600
C706        C  0.76204535  0.95895340  0.22745581     0.04000
C707        C  0.81621323  0.96177365  0.22545914    -0.10100
H708        H  0.83303421  0.06568876  0.30535853     0.09600
H709        H  0.69460654  0.98935101  0.26079332     0.07200
H710        H  0.83726724  0.93561944  0.20111783     0.07000
C711        C  0.25034376  0.86114550  0.00558688     0.04000
C712        C  0.26843784  0.83208729  0.04814297    -0.12100
C713        C  0.27033144  0.77795649  0.04555766     0.01500
C714        C  0.25608039  0.75402840  0.00011248    -0.10600
C715        C  0.23797127  0.78084417  0.95773561     0.04000
C716        C  0.23437350  0.83482891  0.96063884    -0.10100
H717        H  0.28135137  0.85143212  0.08243294     0.09600
H718        H  0.25861078  0.71266425  0.99787230     0.07200
H719        H  0.21952352  0.85623336  0.92832134     0.07000
C720        C  0.73044940  0.34110632  0.50834665     0.04000
C721        C  0.70287523  0.31222943  0.47054102    -0.12100
C722        C  0.70132751  0.25789038  0.47368563     0.01500
C723        C  0.72603128  0.23436771  0.51441722    -0.10600
C724        C  0.75774115  0.26022314  0.54791645     0.04000
C725        C  0.75964612  0.31417260  0.54585951    -0.10100
H726        H  0.68255744  0.33176081  0.44008752     0.09600
H727        H  0.72442166  0.19287901  0.51776687     0.07200
H728        H  0.78467736  0.33485894  0.57160458     0.07000
C729        C  0.15523083  0.49034783  0.25440036     0.04000
C730        C  0.18500505  0.44823687  0.27223263    -0.12100
C731        C  0.23855851  0.44834631  0.26435158     0.01500
C732        C  0.26035227  0.48871452  0.23742733    -0.10600
C733        C  0.23406822  0.53404028  0.22871597     0.04000
C734        C  0.18045566  0.53428190  0.23449396    -0.10100
H735        H  0.16694081  0.41679545  0.29249096     0.09600
H736        H  0.30102129  0.48681867  0.22860666     0.07200
H737        H  0.15863693  0.56783505  0.22370434     0.07000
C738        C  0.24696014  0.41829099  0.99821892     0.04000
C739        C  0.21654640  0.44769386  0.96372629    -0.12100
C740        C  0.22466356  0.50097409  0.95936210     0.01500
C741        C  0.26321760  0.52346905  0.98789338    -0.10600
C742        C  0.28964722  0.49723165  0.02535503     0.04000
C743        C  0.28237974  0.44394946  0.03072989    -0.10100
H744        H  0.18777640  0.42925481  0.94030730     0.09600
H745        H  0.27011006  0.56440216  0.98426964     0.07200
H746        H  0.30349274  0.42290247  0.05956254     0.07000
C747        C  0.39689911  0.00027883  0.24669819     0.04000
C748        C  0.42334185  0.01623680  0.29121730    -0.12100
C749        C  0.47603197  0.00583780  0.29626911     0.01500
C750        C  0.50074486  0.97959871  0.25748610    -0.10600
C751        C  0.47776578  0.97087912  0.21056619     0.04000
C752        C  0.42471707  0.97860827  0.20542254    -0.10100
H753        H  0.40297876  0.03579079  0.32161993     0.09600
H754        H  0.54059664  0.96891821  0.26226692     0.07200
H755        H  0.40540002  0.96800217  0.17030117     0.07000
C756        C  0.50495325  0.24338900  0.15207087     0.04000
C757        C  0.54150313  0.21435563  0.18131740    -0.12100
C758        C  0.53895288  0.21412722  0.23579302     0.01500
C759        C  0.50144892  0.24307945  0.25935765    -0.10600
C760        C  0.46537355  0.27150785  0.23305588     0.04000
C761        C  0.46645566  0.27168200  0.17885324    -0.10100
H762        H  0.57011601  0.19145443  0.16195240     0.09600
H763        H  0.50000444  0.24323764  0.30103749     0.07200
H764        H  0.43889085  0.29444092  0.15778496     0.07000
C765        C  0.25786468  0.14472730  0.48890981     0.04000
C766        C  0.23667278  0.17012867  0.53232386    -0.12100
C767        C  0.23524390  0.22418266  0.53420169     0.01500
C768        C  0.25176871  0.25153461  0.49174546    -0.10600
C769        C  0.27768164  0.22910165  0.45102522     0.04000
C770        C  0.28002648  0.17486987  0.44868427    -0.10100
H771        H  0.22144231  0.14799999  0.56401959     0.09600
H772        H  0.24642269  0.29277835  0.49126905     0.07200
H773        H  0.29982843  0.15644030  0.41724512     0.07000
C774        C  0.99834424  0.72942533  0.09056978     0.04000
C775        C  0.02858975  0.69619573  0.05938737    -0.12100
C776        C  0.02751109  0.70169942  0.00534704     0.01500
C777        C  0.99549274  0.73802686  0.98391860    -0.10600
C778        C  0.97248140  0.77587864  0.01279309     0.04000
C779        C  0.97172248  0.77059777  0.06667426    -0.10100
H780        H  0.05350492  0.66802465  0.07693068     0.09600
H781        H  0.99167259  0.73902339  0.94247370     0.07200
H782        H  0.95190822  0.79865601  0.08982657     0.07000
C783        C  0.75753578  0.10088395  0.01509115     0.04000
C784        C  0.79968418  0.07221031  0.99617374    -0.12100
C785        C  0.79918834  0.01816852  0.99999906     0.01500
C786        C  0.75765898  0.99458749  0.02328226    -0.10600
C787        C  0.71256023  0.02064548  0.03291303     0.04000
C788        C  0.71284099  0.07451876  0.03149939    -0.10100
H789        H  0.83162474  0.09158489  0.97802494     0.09600
H790        H  0.75831846  0.95355092  0.02956832     0.07200
H791        H  0.67883128  0.09563018  0.04226856     0.07000
C792        C  0.09058214  0.00207008  0.74816483     0.04000
C793        C  0.06298346  0.98307593  0.79101647    -0.12100
C794        C  0.00904282  0.98524656  0.79150689     0.01500
C795        C  0.98383472  0.00438205  0.74867090    -0.10600
C796        C  0.00961143  0.02104616  0.70503105     0.04000
C797        C  0.06356534  0.02130825  0.70514937    -0.10100
H798        H  0.08331246  0.96724169  0.82352174     0.09600
H799        H  0.94237782  0.00578177  0.74903641     0.07200
H800        H  0.08433554  0.03599520  0.67231581     0.07000
loop_ 
_geom_bond_atom_site_label_1 
_geom_bond_atom_site_label_2 
_geom_bond_distance 
_geom_bond_site_symmetry_2 
_ccdc_geom_bond_type 
Zn1           O5   1.884       .  S
Zn1           O6   1.974       .  S
Zn1          O10   2.010       .  S
Zn1          O17   2.012       .  S
Zn2           O5   2.025       .  S
Zn2           O7   2.092       .  S
Zn2           O9   2.077       .  S
Zn2          O13   2.082       .  S
Zn3           O5   1.896       .  S
Zn3           O8   2.001       .  S
Zn3          O11   1.977       .  S
Zn3          O14   1.997       .  S
Zn4           O5   1.877       .  S
Zn4          O12   1.996       .  S
Zn4          O15   2.003       .  S
Zn4          O16   2.025       .  S
O6           C18   1.277       .  A
O7           C19   1.279       .  A
O8           C20   1.279       .  A
O9           C18   1.278       .  A
O10          C20   1.268       .  A
O11          C19   1.274       .  A
O12          C21   1.281       .  A
O13          C22   1.275       .  A
O14          C21   1.268       .  A
O15          C22   1.280       .  A
O16          C23   1.269       .  A
O17          C23   1.281       .  A
C18         C367   1.483       .  S
C19         C351   1.483       .  S
C20         C340   1.483       .  S
C21         C358   1.477       .  S
C22         C387   1.491       .  S
C23         C376   1.485       .  S
Zn24         O28   1.891       .  S
Zn24         O29   1.992       .  S
Zn24         O33   2.005       .  S
Zn24         O40   2.002       .  S
Zn25         O28   2.029       .  S
Zn25         O30   2.072       .  S
Zn25         O32   2.047       .  S
Zn25         O36   2.075       .  S
Zn26         O28   1.879       .  S
Zn26         O31   2.015       .  S
Zn26         O34   1.971       .  S
Zn26         O37   2.034       .  S
Zn27         O28   1.883       .  S
Zn27         O35   2.022       .  S
Zn27         O38   2.000       .  S
Zn27         O39   2.032       .  S
O29          C41   1.279       .  A
O30          C42   1.275       .  A
O31          C43   1.283       .  A
O32          C41   1.272       .  A
O33          C43   1.265       .  A
O34          C42   1.277       .  A
O35          C44   1.283       .  A
O36          C45   1.275       .  A
O37          C44   1.271       .  A
O38          C45   1.280       .  A
O39          C46   1.272       .  A
O40          C46   1.281       .  A
C41         C396   1.473       .  S
C42         C360   1.486       .  S
C43         C385   1.481       .  S
C44         C286   1.493       .  S
C45         C315   1.487       .  S
C46          C83   1.489   1_655  S
Zn47         O51   1.865       .  S
Zn47         O52   1.980       .  S
Zn47         O56   2.021       .  S
Zn47         O63   2.011       .  S
Zn48         O51   2.031       .  S
Zn48         O53   2.082       .  S
Zn48         O55   2.094       .  S
Zn48         O59   2.075       .  S
Zn49         O51   1.884       .  S
Zn49         O54   1.990       .  S
Zn49         O57   1.960       .  S
Zn49         O60   2.009       .  S
Zn50         O51   1.871       .  S
Zn50         O58   1.999       .  S
Zn50         O61   1.978       .  S
Zn50         O62   2.016   1_554  S
O52          C64   1.277       .  A
O53          C65   1.277       .  A
O54          C66   1.280       .  A
O55          C64   1.277       .  A
O56          C66   1.271       .  A
O57          C65   1.273       .  A
O58          C67   1.281       .  A
O59          C68   1.276       .  A
O60          C67   1.268       .  A
O61          C68   1.277       .  A
O62          C69   1.270   1_556  A
O63          C69   1.282       .  A
C64         C210   1.490       .  S
C65         C394   1.485       .  S
C66          C81   1.480   1_655  S
C67          C72   1.485       .  S
C68         C333   1.482       .  S
C69         C199   1.483   1_554  S
C70         C552   1.503       .  S
C70          C71   1.424   1_556  A
C70          C75   1.433       .  A
C71          C72   1.413       .  A
C71          H76   1.082       .  S
C72          C73   1.387       .  A
C73          C74   1.380   1_554  A
C73          H77   1.086       .  S
C74         C106   1.491       .  S
C74          C75   1.419       .  A
C75          H78   1.083       .  S
C79         C729   1.490       .  S
C79          C80   1.418       .  A
C79          C84   1.422       .  A
C80          C81   1.406       .  A
C80          H85   1.082       .  S
C81          C82   1.388   1_455  A
C82          C83   1.390   1_655  A
C82          H86   1.083       .  S
C83          C84   1.415       .  A
C84          H87   1.083       .  S
Zn88         O92   1.883       .  S
Zn88         O93   2.013       .  S
Zn88         O97   1.980       .  S
Zn88        O104   2.015       .  S
Zn89         O92   1.875       .  S
Zn89         O94   1.993       .  S
Zn89         O96   2.019       .  S
Zn89        O100   1.987       .  S
Zn90         O92   2.027       .  S
Zn90         O95   2.083       .  S
Zn90         O98   2.095       .  S
Zn90        O101   2.105       .  S
Zn91         O92   1.886       .  S
Zn91         O99   1.980       .  S
Zn91        O102   1.989       .  S
Zn91        O103   2.002       .  S
O93         C105   1.282       .  A
O94         C106   1.278       .  A
O95         C107   1.279       .  A
O96         C105   1.269       .  A
O97         C107   1.278       .  A
O98         C106   1.277       .  A
O99         C108   1.275       .  A
O100        C109   1.280       .  A
O101        C108   1.280       .  A
O102        C109   1.267       .  A
O103        C110   1.280       .  A
O104        C110   1.268       .  A
C105        C378   1.482       .  S
C107        C369   1.483       .  S
C108        C136   1.491   1_556  S
C109        C331   1.472       .  S
C110        C147   1.482       .  S
Zn111       O115   1.899       .  S
Zn111       O116   1.975       .  S
Zn111       O120   2.013       .  S
Zn111       O127   2.009       .  S
Zn112       O115   2.029       .  S
Zn112       O117   2.119       .  S
Zn112       O119   2.089       .  S
Zn112       O123   2.094       .  S
Zn113       O115   1.898       .  S
Zn113       O118   1.999       .  S
Zn113       O121   1.995       .  S
Zn113       O124   2.000       .  S
Zn114       O115   1.896       .  S
Zn114       O122   1.989       .  S
Zn114       O125   1.992       .  S
Zn114       O126   2.014       .  S
O116        C128   1.276       .  A
O117        C129   1.282       .  A
O118        C130   1.278       .  A
O119        C128   1.280       .  A
O120        C130   1.268       .  A
O121        C129   1.276       .  A
O122        C131   1.278       .  A
O123        C132   1.279       .  A
O124        C131   1.268       .  A
O125        C132   1.277       .  A
O126        C133   1.267       .  A
O127        C133   1.279       .  A
C128        C181   1.483       .  S
C129        C154   1.499       .  S
C130        C324   1.478       .  S
C131        C145   1.475       .  S
C132        C138   1.488   1_556  S
C133        C172   1.482       .  S
C134        C756   1.516       .  S
C134        C135   1.434       .  A
C134        C139   1.432       .  A
C135        C136   1.420       .  A
C135        H140   1.083       .  S
C136        C137   1.384   1_554  A
C137        C138   1.381   1_556  A
C137        H141   1.088       .  S
C138        C139   1.418       .  A
C139        H142   1.083       .  S
C143        C447   1.485       .  S
C143        C144   1.413       .  A
C143        C148   1.420       .  A
C144        C145   1.405       .  A
C144        H149   1.083       .  S
C145        C146   1.388       .  A
C146        C147   1.390       .  A
C146        H150   1.083       .  S
C147        C148   1.413       .  A
C148        H151   1.083       .  S
C152        C584   1.523       .  S
C152        C153   1.436       .  A
C152        C157   1.433   1_545  A
C153        C154   1.423       .  A
C153        H158   1.083       .  S
C154        C155   1.387       .  A
C155        C156   1.386   1_545  A
C155        H159   1.088       .  S
C156        C259   1.494       .  S
C156        C157   1.420       .  A
C157        H160   1.083       .  S
C161        C702   1.518       .  S
C161        C162   1.434       .  A
C161        C166   1.433   1_545  A
C162        C163   1.421       .  A
C162        H167   1.083       .  S
C163        C237   1.486   1_655  S
C163        C164   1.379   1_655  A
C164        C165   1.380   1_445  A
C164        H168   1.090       .  S
C165        C279   1.485   1_655  S
C165        C166   1.418       .  A
C166        H169   1.083       .  S
C170        C738   1.497       .  S
C170        C171   1.420       .  A
C170        C175   1.421   1_556  A
C171        C172   1.412       .  A
C171        H176   1.082       .  S
C172        C173   1.387       .  A
C173        C174   1.388   1_556  A
C173        H177   1.085       .  S
C174        C233   1.479       .  S
C174        C175   1.413       .  A
C175        H178   1.082       .  S
C179        C711   1.505       .  S
C179        C180   1.426   1_554  A
C179        C184   1.430       .  A
C180        C181   1.411   1_565  A
C180        H185   1.082       .  S
C181        C182   1.384   1_556  A
C182        C183   1.388       .  A
C182        H186   1.087       .  S
C183        C235   1.491       .  S
C183        C184   1.417   1_545  A
C184        H187   1.083       .  S
C188        C747   1.481       .  S
C188        C189   1.418       .  A
C188        C193   1.412   1_545  A
C189        C190   1.412       .  A
C189        H194   1.083       .  S
C190        C234   1.482       .  S
C190        C191   1.391       .  A
C191        C192   1.389   1_545  A
C191        H195   1.083       .  S
C192        C282   1.474       .  S
C192        C193   1.402       .  A
C193        H196   1.084       .  S
C197        C684   1.501       .  S
C197        C198   1.422       .  A
C197        C202   1.429   1_655  A
C198        C199   1.410       .  A
C198        H203   1.082       .  S
C199        C200   1.386   1_556  A
C200        C201   1.385   1_654  A
C200        H204   1.087       .  S
C201        C236   1.487   1_556  S
C201        C202   1.418       .  A
C202        H205   1.083       .  S
C206        C675   1.495       .  S
C206        C207   1.417   1_655  A
C206        C211   1.433       .  A
C207        C208   1.405       .  A
C207        H212   1.083       .  S
C208        C232   1.472       .  S
C208        C209   1.384   1_455  A
C209        C210   1.383       .  A
C209        H213   1.087       .  S
C210        C211   1.419       .  A
C211        H214   1.083       .  S
Zn215       O219   1.899       .  S
Zn215       O220   1.998       .  S
Zn215       O224   1.999       .  S
Zn215       O231   1.996       .  S
Zn216       O219   1.878       .  S
Zn216       O221   2.020       .  S
Zn216       O223   1.986       .  S
Zn216       O227   1.993       .  S
Zn217       O219   1.894       .  S
Zn217       O222   2.014       .  S
Zn217       O225   2.014       .  S
Zn217       O228   1.981       .  S
Zn218       O219   2.025       .  S
Zn218       O226   2.095       .  S
Zn218       O229   2.079       .  S
Zn218       O230   2.089       .  S
O220        C232   1.267       .  A
O221        C233   1.268       .  A
O222        C234   1.269       .  A
O223        C232   1.279       .  A
O224        C234   1.279       .  A
O225        C233   1.281       .  A
O226        C235   1.281       .  A
O227        C236   1.279       .  A
O228        C235   1.277       .  A
O229        C236   1.276       .  A
O230        C237   1.279       .  A
O231        C237   1.277       .  A
Zn238       O242   1.896       .  S
Zn238       O243   2.006       .  S
Zn238       O247   1.995       .  S
Zn238       O254   1.975       .  S
Zn239       O242   1.895       .  S
Zn239       O244   2.012       .  S
Zn239       O246   2.004       .  S
Zn239       O250   1.997       .  S
Zn240       O242   1.896       .  S
Zn240       O245   2.008       .  S
Zn240       O248   1.992       .  S
Zn240       O251   1.987       .  S
Zn241       O242   2.034       .  S
Zn241       O249   2.094       .  S
Zn241       O252   2.106       .  S
Zn241       O253   2.091       .  S
O243        C255   1.267       .  A
O244        C256   1.268       .  A
O245        C257   1.266       .  A
O246        C255   1.279       .  A
O247        C257   1.278       .  A
O248        C256   1.278       .  A
O249        C258   1.279       .  A
O250        C259   1.277       .  A
O251        C258   1.277       .  A
O252        C259   1.281       .  A
O253        C260   1.279       .  A
O254        C260   1.275       .  A
C255        C322   1.478       .  S
C256        C342   1.476       .  S
C257        C306   1.477       .  S
C258        C349   1.488       .  S
C260        C297   1.485   1_565  S
Zn261       O265   1.871       .  S
Zn261       O266   1.968       .  S
Zn261       O270   1.976       .  S
Zn261       O277   2.003       .  S
Zn262       O265   1.898       .  S
Zn262       O267   1.983       .  S
Zn262       O269   1.999       .  S
Zn262       O273   1.978       .  S
Zn263       O265   2.028       .  S
Zn263       O268   2.095       .  S
Zn263       O271   2.093       .  S
Zn263       O274   2.109       .  S
Zn264       O265   1.887       .  S
Zn264       O272   1.980       .  S
Zn264       O275   2.005       .  S
Zn264       O276   2.015       .  S
O266        C278   1.277       .  A
O267        C279   1.275       .  A
O268        C280   1.279       .  A
O269        C278   1.265       .  A
O270        C280   1.276       .  A
O271        C279   1.279       .  A
O272        C281   1.276       .  A
O273        C282   1.277       .  A
O274        C281   1.282       .  A
O275        C282   1.269       .  A
O276        C283   1.280       .  A
O277        C283   1.265       .  A
C278        C313   1.473       .  S
C280        C288   1.491       .  S
C281        C295   1.491   1_565  S
C283        C304   1.479       .  S
C284        C639   1.503       .  S
C284        C285   1.426       .  A
C284        C289   1.429   1_655  A
C285        C286   1.414       .  A
C285        H290   1.082       .  S
C286        C287   1.387       .  A
C287        C288   1.389   1_655  A
C287        H291   1.086       .  S
C288        C289   1.416       .  A
C289        H292   1.083       .  S
C293        C765   1.507       .  S
C293        C294   1.431       .  A
C293        C298   1.428       .  A
C294        C295   1.417       .  A
C294        H299   1.082       .  S
C295        C296   1.386   1_545  A
C296        C297   1.385   1_565  A
C296        H300   1.088       .  S
C297        C298   1.413       .  A
C298        H301   1.083       .  S
C302        C520   1.494       .  S
C302        C303   1.421       .  A
C302        C307   1.418       .  A
C303        C304   1.412       .  A
C303        H308   1.082       .  S
C304        C305   1.385       .  A
C305        C306   1.388       .  A
C305        H309   1.084       .  S
C306        C307   1.412       .  A
C307        H310   1.083       .  S
C311        C774   1.501   1_455  S
C311        C312   1.418       .  A
C311        C316   1.434   1_455  A
C312        C313   1.407       .  A
C312        H317   1.082       .  S
C313        C314   1.382   1_455  A
C314        C315   1.378       .  A
C314        H318   1.087       .  S
C315        C316   1.420       .  A
C316        H319   1.083       .  S
C320        C792   1.487       .  S
C320        C321   1.417   1_545  A
C320        C325   1.417       .  A
C321        C322   1.410       .  A
C321        H326   1.083       .  S
C322        C323   1.389   1_565  A
C323        C324   1.389       .  A
C323        H327   1.084       .  S
C324        C325   1.409       .  A
C325        H328   1.083       .  S
C329        C783   1.489       .  S
C329        C330   1.415   1_554  A
C329        C334   1.427       .  A
C330        C331   1.404       .  A
C330        H335   1.083       .  S
C331        C332   1.387   1_556  A
C332        C333   1.383       .  A
C332        H336   1.087       .  S
C333        C334   1.416       .  A
C334        H337   1.083       .  S
C338        C488   1.489       .  S
C338        C339   1.419       .  A
C338        C343   1.416       .  A
C339        C340   1.410       .  A
C339        H344   1.082       .  S
C340        C341   1.388       .  A
C341        C342   1.390       .  A
C341        H345   1.084       .  S
C342        C343   1.410       .  A
C343        H346   1.083       .  S
C347        C693   1.512       .  S
C347        C348   1.431       .  A
C347        C352   1.431       .  A
C348        C349   1.418       .  A
C348        H353   1.083       .  S
C349        C350   1.384       .  A
C350        C351   1.381       .  A
C350        H354   1.089       .  S
C351        C352   1.416       .  A
C352        H355   1.082       .  S
C356        C666   1.490       .  S
C356        C357   1.417       .  A
C356        C361   1.427       .  A
C357        C358   1.405       .  A
C357        H362   1.083       .  S
C358        C359   1.385       .  A
C359        C360   1.385       .  A
C359        H363   1.086       .  S
C360        C361   1.415       .  A
C361        H364   1.083       .  S
C365        C657   1.502       .  S
C365        C366   1.427       .  A
C365        C370   1.429       .  A
C366        C367   1.411       .  A
C366        H371   1.083       .  S
C367        C368   1.384       .  A
C368        C369   1.383       .  A
C368        H372   1.087       .  S
C369        C370   1.414       .  A
C370        H373   1.083       .  S
C374        C648   1.500       .  S
C374        C375   1.423       .  A
C374        C379   1.422       .  A
C375        C376   1.414       .  A
C375        H380   1.082       .  S
C376        C377   1.388       .  A
C377        C378   1.388       .  A
C377        H381   1.084       .  S
C378        C379   1.412       .  A
C379        H382   1.082       .  S
C383        C720   1.509       .  S
C383        C384   1.424       .  A
C383        C388   1.435       .  A
C384        C385   1.413       .  A
C384        H389   1.083       .  S
C385        C386   1.382       .  A
C386        C387   1.380       .  A
C386        H390   1.087       .  S
C387        C388   1.422       .  A
C388        H391   1.083       .  S
C392        C479   1.498       .  S
C392        C393   1.428       .  A
C392        C397   1.424       .  A
C393        C394   1.414       .  A
C393        H398   1.082       .  S
C394        C395   1.385       .  A
C395        C396   1.377       .  A
C395        H399   1.087       .  S
C396        C397   1.411       .  A
C397        H400   1.082       .  S
Zn401       O405   1.905       .  S
Zn401       O406   1.976       .  S
Zn401       O410   2.026       .  S
Zn401       O417   2.029       .  S
Zn402       O405   2.026       .  S
Zn402       O407   2.052       .  S
Zn402       O409   2.053       .  S
Zn402       O413   2.046       .  S
Zn403       O405   1.882       .  S
Zn403       O408   2.036       .  S
Zn403       O411   2.001       .  S
Zn403       O414   2.035       .  S
Zn404       O405   1.889       .  S
Zn404       O412   2.026       .  S
Zn404       O415   1.998       .  S
Zn404       O416   2.005       .  S
O406        C418   1.275       .  A
O407        C419   1.273       .  A
O408        C420   1.273       .  A
O409        C418   1.274       .  A
O410        C420   1.281       .  A
O411        C419   1.280       .  A
O412        C421   1.269       .  A
O413        C422   1.270       .  A
O414        C421   1.284       .  A
O415        C422   1.279       .  A
O416        C423   1.281       .  A
O417        C423   1.271       .  A
C418        C652   1.474       .  S
C419        C524   1.482       .  S
C420        C659   1.487       .  S
C421        C767   1.489       .  S
C422        C679   1.479       .  S
C423        C686   1.489       .  S
Zn424       O428   2.036       .  S
Zn424       O429   2.130       .  S
Zn424       O433   2.120       .  S
Zn424       O440   2.131       .  S
Zn425       O428   1.884       .  S
Zn425       O430   2.010       .  S
Zn425       O432   1.971       .  S
Zn425       O436   2.005       .  S
Zn426       O428   1.871       .  S
Zn426       O431   1.986       .  S
Zn426       O434   1.984       .  S
Zn426       O437   1.993       .  S
Zn427       O428   1.871       .  S
Zn427       O435   1.978       .  S
Zn427       O438   1.989   1_545  S
Zn427       O439   1.976       .  S
O429        C441   1.284       .  A
O430        C442   1.269       .  A
O431        C443   1.277       .  A
O432        C441   1.275       .  A
O433        C443   1.282       .  A
O434        C442   1.279       .  A
O435        C444   1.278       .  A
O436        C445   1.280       .  A
O437        C444   1.265       .  A
O438        C445   1.263   1_565  A
O439        C446   1.276       .  A
O440        C446   1.284       .  A
C441        C722   1.499       .  S
C442        C449   1.482       .  S
C443        C758   1.498       .  S
C444        C749   1.474       .  S
C445        C668   1.476   1_545  S
C446        C704   1.503       .  S
C447        C448   1.418       .  A
C447        C452   1.417       .  A
C448        C449   1.411       .  A
C448        H453   1.083       .  S
C449        C450   1.387       .  A
C450        C451   1.386       .  A
C450        H454   1.084       .  S
C451        C474   1.472       .  S
C451        C452   1.406       .  A
C452        H455   1.083       .  S
Zn456       O460   1.878       .  S
Zn456       O461   1.988       .  S
Zn456       O465   2.020       .  S
Zn456       O472   1.954       .  S
Zn457       O460   1.884       .  S
Zn457       O462   1.994       .  S
Zn457       O464   2.008       .  S
Zn457       O468   1.968       .  S
Zn458       O460   1.864       .  S
Zn458       O463   1.975       .  S
Zn458       O466   2.007       .  S
Zn458       O469   1.968       .  S
Zn459       O460   2.040       .  S
Zn459       O467   2.109       .  S
Zn459       O470   2.091       .  S
Zn459       O471   2.084       .  S
O461        C473   1.279       .  A
O462        C474   1.280       .  A
O463        C475   1.277       .  A
O464        C473   1.266       .  A
O465        C475   1.268       .  A
O466        C474   1.267       .  A
O467        C476   1.279       .  A
O468        C477   1.275       .  A
O469        C476   1.275       .  A
O470        C477   1.279       .  A
O471        C478   1.278       .  A
O472        C478   1.274       .  A
C473        C481   1.478       .  S
C475        C522   1.479       .  S
C476        C769   1.495       .  S
C477        C760   1.486       .  S
C478        C731   1.481       .  S
C479        C480   1.422       .  A
C479        C484   1.429       .  A
C480        C481   1.411       .  A
C480        H485   1.082       .  S
C481        C482   1.385       .  A
C482        C483   1.378       .  A
C482        H486   1.087       .  S
C483        C519   1.482       .  S
C483        C484   1.415       .  A
C484        H487   1.082       .  S
C488        C489   1.419       .  A
C488        C493   1.426       .  A
C489        C490   1.406       .  A
C489        H494   1.083       .  S
C490        C546   1.479   1_556  S
C490        C491   1.386   1_556  A
C491        C492   1.381   1_554  A
C491        H495   1.087       .  S
C492        C517   1.480   1_556  S
C492        C493   1.414       .  A
C493        H496   1.082       .  S
Zn497       O501   1.891       .  S
Zn497       O502   2.006       .  S
Zn497       O506   2.026       .  S
Zn497       O513   1.990       .  S
Zn498       O501   1.900       .  S
Zn498       O503   2.025       .  S
Zn498       O505   2.015       .  S
Zn498       O509   1.989       .  S
Zn499       O501   1.882       .  S
Zn499       O504   2.023       .  S
Zn499       O507   2.046       .  S
Zn499       O510   1.994       .  S
Zn500       O501   2.023       .  S
Zn500       O508   2.055       .  S
Zn500       O511   2.049       .  S
Zn500       O512   2.063       .  S
O502        C514   1.281       .  A
O503        C515   1.282       .  A
O504        C516   1.283       .  A
O505        C514   1.270       .  A
O506        C516   1.271       .  A
O507        C515   1.273       .  A
O508        C517   1.273       .  A
O509        C518   1.278       .  A
O510        C517   1.279       .  A
O511        C518   1.274       .  A
O512        C519   1.272       .  A
O513        C519   1.277       .  A
C514        C733   1.480       .  S
C515        C713   1.491       .  S
C516        C695   1.487       .  S
C518        C742   1.471       .  S
C520        C521   1.420       .  A
C520        C525   1.427       .  A
C521        C522   1.407       .  A
C521        H526   1.082       .  S
C522        C523   1.385       .  A
C523        C524   1.382       .  A
C523        H527   1.087       .  S
C524        C525   1.415       .  A
C525        H528   1.082       .  S
Zn529       O533   1.880       .  S
Zn529       O534   2.011       .  S
Zn529       O538   1.937       .  S
Zn529       O545   1.999       .  S
Zn530       O533   1.866       .  S
Zn530       O535   1.989       .  S
Zn530       O537   1.974       .  S
Zn530       O541   2.006       .  S
Zn531       O533   2.040       .  S
Zn531       O536   2.128       .  S
Zn531       O539   2.114       .  S
Zn531       O542   2.116       .  S
Zn532       O533   1.871       .  S
Zn532       O540   1.977       .  S
Zn532       O543   1.983       .  S
Zn532       O544   1.998   1_565  S
O534        C546   1.270       .  A
O535        C547   1.277       .  A
O536        C548   1.282       .  A
O537        C546   1.277       .  A
O538        C548   1.269       .  A
O539        C547   1.280       .  A
O540        C549   1.278       .  A
O541        C550   1.267       .  A
O542        C549   1.283       .  A
O543        C550   1.280       .  A
O544        C551   1.264   1_545  A
O545        C551   1.280       .  A
C547        C697   1.496       .  S
C548        C556   1.498       .  S
C549        C706   1.496       .  S
C550        C751   1.468       .  S
C551        C787   1.475   1_565  S
C552        C553   1.426       .  A
C552        C557   1.433   1_556  A
C553        C554   1.411       .  A
C553        H558   1.083       .  S
C554        C613   1.482       .  S
C554        C555   1.381       .  A
C555        C556   1.391   1_556  A
C555        H559   1.087       .  S
C556        C557   1.417       .  A
C557        H560   1.083       .  S
Zn561       O565   1.884       .  S
Zn561       O566   2.001       .  S
Zn561       O570   1.985       .  S
Zn561       O577   2.010       .  S
Zn562       O565   2.035       .  S
Zn562       O567   2.114       .  S
Zn562       O569   2.092       .  S
Zn562       O573   2.085       .  S
Zn563       O565   1.879       .  S
Zn563       O568   2.021       .  S
Zn563       O571   1.964       .  S
Zn563       O574   1.997       .  S
Zn564       O565   1.890       .  S
Zn564       O572   1.992       .  S
Zn564       O575   1.964       .  S
Zn564       O576   1.996       .  S
O566        C578   1.279       .  A
O567        C579   1.280       .  A
O568        C580   1.271       .  A
O569        C578   1.280       .  A
O570        C580   1.278       .  A
O571        C579   1.274       .  A
O572        C581   1.264       .  A
O573        C582   1.278       .  A
O574        C581   1.279       .  A
O575        C582   1.276       .  A
O576        C583   1.279       .  A
O577        C583   1.267       .  A
C578        C586   1.490       .  S
C579        C688   1.496       .  S
C580        C796   1.482   1_655  S
C581        C677   1.475       .  S
C582        C724   1.481       .  S
C583        C670   1.479   1_545  S
C584        C585   1.434       .  A
C584        C589   1.435   1_545  A
C585        C586   1.421       .  A
C585        H590   1.083       .  S
C586        C587   1.383       .  A
C587        C588   1.382   1_545  A
C587        H591   1.088       .  S
C588        C615   1.492       .  S
C588        C589   1.422       .  A
C589        H592   1.083       .  S
Zn593       O597   1.895       .  S
Zn593       O598   1.988       .  S
Zn593       O602   2.012       .  S
Zn593       O609   2.006       .  S
Zn594       O597   1.885       .  S
Zn594       O599   2.014       .  S
Zn594       O601   2.023       .  S
Zn594       O605   1.977       .  S
Zn595       O597   1.892       .  S
Zn595       O600   1.992       .  S
Zn595       O603   2.006       .  S
Zn595       O606   1.962       .  S
Zn596       O597   2.037       .  S
Zn596       O604   2.086       .  S
Zn596       O607   2.115       .  S
Zn596       O608   2.102       .  S
O598        C610   1.279       .  A
O599        C611   1.281       .  A
O600        C612   1.279       .  A
O601        C610   1.271       .  A
O602        C612   1.266       .  A
O603        C611   1.264       .  A
O604        C613   1.278       .  A
O605        C614   1.276       .  A
O606        C613   1.276       .  A
O607        C614   1.280       .  A
O608        C615   1.281       .  A
O609        C615   1.278       .  A
C610        C794   1.482   1_655  S
C611        C778   1.483   1_556  S
C612        C785   1.481   1_565  S
C614        C641   1.499       .  S
Zn616       O620   1.894       .  S
Zn616       O621   1.972       .  S
Zn616       O625   2.034       .  S
Zn616       O632   2.030       .  S
Zn617       O620   2.024       .  S
Zn617       O622   2.060       .  S
Zn617       O624   2.055       .  S
Zn617       O628   2.057       .  S
Zn618       O620   1.884       .  S
Zn618       O623   2.031       .  S
Zn618       O626   1.998       .  S
Zn618       O629   2.003       .  S
Zn619       O620   1.904       .  S
Zn619       O627   2.023       .  S
Zn619       O630   1.985       .  S
Zn619       O631   2.025       .  S
O621        C633   1.275       .  A
O622        C634   1.273       .  A
O623        C635   1.271       .  A
O624        C633   1.275       .  A
O625        C635   1.282       .  A
O626        C634   1.279       .  A
O627        C636   1.272       .  A
O628        C637   1.274       .  A
O629        C636   1.281       .  A
O630        C637   1.275       .  A
O631        C638   1.281       .  A
O632        C638   1.273       .  A
C633        C740   1.479       .  S
C634        C776   1.484   1_556  S
C635        C715   1.490       .  S
C636        C643   1.484       .  S
C637        C650   1.473       .  S
C638        C661   1.493       .  S
C639        C640   1.434       .  A
C639        C644   1.420   1_655  A
C640        C641   1.421       .  A
C640        H645   1.083       .  S
C641        C642   1.389       .  A
C642        C643   1.388   1_655  A
C642        H646   1.085       .  S
C643        C644   1.408       .  A
C644        H647   1.083       .  S
C648        C649   1.426       .  A
C648        C653   1.426       .  A
C649        C650   1.411   1_655  A
C649        H654   1.082       .  S
C650        C651   1.378       .  A
C651        C652   1.381       .  A
C651        H655   1.089       .  S
C652        C653   1.413   1_455  A
C653        H656   1.082       .  S
C657        C658   1.421       .  A
C657        C662   1.422       .  A
C658        C659   1.413       .  A
C658        H663   1.083       .  S
C659        C660   1.395       .  A
C660        C661   1.396       .  A
C660        H664   1.084       .  S
C661        C662   1.414       .  A
C662        H665   1.083       .  S
C666        C667   1.419       .  A
C666        C671   1.418       .  A
C667        C668   1.408       .  A
C667        H672   1.083       .  S
C668        C669   1.385   1_565  A
C669        C670   1.386   1_545  A
C669        H673   1.084       .  S
C670        C671   1.413       .  A
C671        H674   1.083       .  S
C675        C676   1.419       .  A
C675        C680   1.428   1_655  A
C676        C677   1.407       .  A
C676        H681   1.083       .  S
C677        C678   1.380       .  A
C678        C679   1.381   1_655  A
C678        H682   1.087       .  S
C679        C680   1.418       .  A
C680        H683   1.083       .  S
C684        C685   1.423   1_655  A
C684        C689   1.431       .  A
C685        C686   1.411       .  A
C685        H690   1.082       .  S
C686        C687   1.389   1_455  A
C687        C688   1.388       .  A
C687        H691   1.086       .  S
C688        C689   1.417       .  A
C689        H692   1.083       .  S
C693        C694   1.424       .  A
C693        C698   1.435       .  A
C694        C695   1.412       .  A
C694        H699   1.083       .  S
C695        C696   1.387       .  A
C696        C697   1.387       .  A
C696        H700   1.087       .  S
C697        C698   1.424       .  A
C698        H701   1.083       .  S
C702        C703   1.437       .  A
C702        C707   1.433   1_545  A
C703        C704   1.422       .  A
C703        H708   1.083       .  S
C704        C705   1.388   1_545  A
C705        C706   1.385       .  A
C705        H709   1.087       .  S
C706        C707   1.417       .  A
C707        H710   1.083       .  S
C711        C712   1.425       .  A
C711        C716   1.423   1_554  A
C712        C713   1.416       .  A
C712        H717   1.083       .  S
C713        C714   1.393       .  A
C714        C715   1.391   1_554  A
C714        H718   1.084   1_554  S
C715        C716   1.415       .  A
C716        H719   1.083       .  S
C720        C721   1.437       .  A
C720        C725   1.426       .  A
C721        C722   1.422       .  A
C721        H726   1.083       .  S
C722        C723   1.386       .  A
C723        C724   1.382       .  A
C723        H727   1.088       .  S
C724        C725   1.411       .  A
C725        H728   1.083       .  S
C729        C730   1.425       .  A
C729        C734   1.419       .  A
C730        C731   1.413       .  A
C730        H735   1.083       .  S
C731        C732   1.387       .  A
C732        C733   1.387       .  A
C732        H736   1.087       .  S
C733        C734   1.407       .  A
C734        H737   1.082       .  S
C738        C739   1.425       .  A
C738        C743   1.424   1_556  A
C739        C740   1.412       .  A
C739        H744   1.082       .  S
C740        C741   1.384       .  A
C741        C742   1.379   1_556  A
C741        H745   1.088       .  S
C742        C743   1.411       .  A
C743        H746   1.082       .  S
C747        C748   1.415       .  A
C747        C752   1.417   1_545  A
C748        C749   1.408       .  A
C748        H753   1.083       .  S
C749        C750   1.383   1_545  A
C750        C751   1.383       .  A
C750        H754   1.084       .  S
C751        C752   1.406       .  A
C752        H755   1.083       .  S
C756        C757   1.438       .  A
C756        C761   1.430       .  A
C757        C758   1.423       .  A
C757        H762   1.082       .  S
C758        C759   1.382       .  A
C759        C760   1.382       .  A
C759        H763   1.088       .  S
C760        C761   1.415       .  A
C761        H764   1.083       .  S
C765        C766   1.425       .  A
C765        C770   1.432       .  A
C766        C767   1.413       .  A
C766        H771   1.083       .  S
C767        C768   1.385       .  A
C768        C769   1.390       .  A
C768        H772   1.086       .  S
C769        C770   1.419       .  A
C770        H773   1.083       .  S
C774        C775   1.429   1_655  A
C774        C779   1.424       .  A
C775        C776   1.417       .  A
C775        H780   1.083       .  S
C776        C777   1.382   1_454  A
C777        C778   1.381   1_556  A
C777        H781   1.086       .  S
C778        C779   1.412       .  A
C779        H782   1.082       .  S
C783        C784   1.420   1_554  A
C783        C788   1.419       .  A
C784        C785   1.415       .  A
C784        H789   1.083       .  S
C785        C786   1.385   1_546  A
C786        C787   1.383   1_565  A
C786        H790   1.084       .  S
C787        C788   1.407       .  A
C788        H791   1.082       .  S
C792        C793   1.418   1_545  A
C792        C797   1.418       .  A
C793        C794   1.409       .  A
C793        H798   1.083       .  S
C794        C795   1.390   1_465  A
C795        C796   1.391   1_655  A
C795        H799   1.083       .  S
C796        C797   1.408       .  A
C797        H800   1.083       .  S
