geometry optimzed in LAMMPS
_audit_creation_date              2020-11-30 
_audit_creation_method            'lammps2cif' 
_symmetry_space_group_name_H-M    'P1' 
_symmetry_Int_Tables_number       1 
_symmetry_cell_setting            triclinic 
loop_ 
_symmetry_equiv_pos_as_xyz 
  x,y,z 
_cell_length_a                    32.7086755 
_cell_length_b                    32.7849084247968 
_cell_length_c                    43.70076592397323 
_cell_angle_alpha                 89.97746052886089 
_cell_angle_beta                  89.98218845693737 
_cell_angle_gamma                 90.11673421808256 
loop_ 
_atom_site_label 
_atom_site_type_symbol 
_atom_site_fract_x 
_atom_site_fract_y 
_atom_site_fract_z 
_atom_site_charge 
O1          O  0.77203301  0.79358127  0.78798420    -0.73000
O2          O  0.78928760  0.70748571  0.72309223    -0.73900
O3          O  0.78851245  0.79391087  0.72402227    -0.62600
O4          O  0.77340424  0.70600347  0.78714651    -0.71000
O5          O  0.70635167  0.70614949  0.77919574    -0.70500
O6          O  0.72155545  0.79396770  0.71564473    -0.61800
O7          O  0.72225567  0.70624220  0.71518753    -0.74300
O8          O  0.70513651  0.79238410  0.77945154    -0.73100
Cu9        Cu  0.78313474  0.75026480  0.75594635     1.04600
Cu10       Cu  0.71152731  0.74963577  0.74695836     1.04300
C11         C  0.73599345  0.80668816  0.79376123     0.93200
C12         C  0.75814048  0.69311701  0.70909290     0.92400
C13         C  0.75731366  0.80803495  0.71008884     0.84500
C14         C  0.73770160  0.69218867  0.79308376     0.90800
O15         O  0.20463718  0.79217839  0.72400467    -0.73000
O16         O  0.21977849  0.70402425  0.78691708    -0.73900
O17         O  0.21925694  0.79140916  0.78817996    -0.62600
O18         O  0.20542564  0.70633969  0.72268913    -0.71000
O19         O  0.27263306  0.70645929  0.71541255    -0.70500
O20         O  0.28647688  0.79134464  0.78098261    -0.61800
O21         O  0.28697682  0.70537105  0.77966050    -0.74300
O22         O  0.27183456  0.79369710  0.71677846    -0.73100
Cu23       Cu  0.20994865  0.74843091  0.75583464     1.04600
Cu24       Cu  0.28181392  0.74923633  0.74786290     1.04300
C25         C  0.23598951  0.80676164  0.71044923     0.93200
C26         C  0.25556809  0.69082040  0.79318390     0.92400
C27         C  0.25490842  0.80489107  0.79477659     0.84500
C28         C  0.23698730  0.69314968  0.70867045     0.90800
O29         O  0.04049397  0.47683002  0.53627657    -0.73000
O30         O  0.95506312  0.45790262  0.47170462    -0.73900
O31         O  0.04170497  0.45863573  0.47268842    -0.62600
O32         O  0.95273604  0.47629147  0.53508947    -0.71000
O33         O  0.95363627  0.54289251  0.52586136    -0.70500
O34         O  0.04238862  0.52518238  0.46325745    -0.61800
O35         O  0.95431482  0.52449492  0.46239455    -0.74300
O36         O  0.04013890  0.54339020  0.52683545    -0.73100
Cu37       Cu  0.99754399  0.46512631  0.50435966     1.04600
Cu38       Cu  0.99764000  0.53628706  0.49410721     1.04300
C39         C  0.05390685  0.51278767  0.54164332     0.93200
C40         C  0.94069917  0.48852794  0.45727536     0.92400
C41         C  0.05626611  0.48932576  0.45831874     0.84500
C42         C  0.93901158  0.51218003  0.54015286     0.90800
N43         N  0.75166054  0.60529616  0.65840146    -0.25700
N44         N  0.78981483  0.61672247  0.65296853    -0.35200
C45         C  0.79808978  0.65017350  0.66987162     0.01000
C46         C  0.76326896  0.66048415  0.68622994     0.07100
C47         C  0.73448967  0.63148745  0.67826186    -0.06000
H48         H  0.82736140  0.66559058  0.67044469     0.07700
H49         H  0.70388113  0.62844652  0.68739136     0.08900
Cu50       Cu  0.82883993  0.58520139  0.62325148     0.44200
Cu51       Cu  0.72575464  0.55155348  0.64248375     0.42000
Cu52       Cu  0.79411340  0.48312807  0.60392623     0.43900
N53         N  0.86061707  0.54570545  0.59408239    -0.34700
N54         N  0.84873728  0.50778756  0.58864724    -0.28900
C55         C  0.87551061  0.48990718  0.56956267    -0.05000
C56         C  0.90541259  0.51799537  0.56213356     0.07200
C57         C  0.89498193  0.55314841  0.57793254     0.01000
H58         H  0.87235732  0.45927985  0.56063675     0.08600
H59         H  0.91104532  0.58203002  0.57757806     0.07700
N60         N  0.73507599  0.46732359  0.61630135    -0.36100
N61         N  0.70969552  0.49256441  0.63018923    -0.28300
C62         C  0.67405050  0.47317173  0.63528713    -0.03600
C63         C  0.67697107  0.43397434  0.62366335     0.05100
C64         C  0.71621823  0.43132661  0.61194394     0.03100
H65         H  0.64793036  0.48661861  0.64660796     0.08300
H66         H  0.73041932  0.40496396  0.60157441     0.07100
N67         N  0.24310013  0.60708348  0.65667058    -0.27300
N68         N  0.20509110  0.61892190  0.65144771    -0.35200
C69         C  0.19732670  0.65219302  0.66853541     0.01000
C70         C  0.23228398  0.66186686  0.68488518     0.07100
C71         C  0.26073935  0.63285220  0.67664100    -0.06000
H72         H  0.16806839  0.66746935  0.66965710     0.07700
H73         H  0.29107514  0.62903409  0.68607081     0.08900
Cu74       Cu  0.16472269  0.58724871  0.62312834     0.44200
Cu75       Cu  0.26696342  0.55218869  0.64189474     0.42000
Cu76       Cu  0.19384829  0.48204000  0.61023630     0.43900
N77         N  0.13116361  0.54678822  0.59616233    -0.34700
N78         N  0.14093388  0.50787337  0.59305420    -0.28900
C79         C  0.11398745  0.48976226  0.57422225    -0.05000
C80         C  0.08623533  0.51869446  0.56457158     0.07200
C81         C  0.09799888  0.55458636  0.57883755     0.01000
H82         H  0.11584375  0.45834873  0.56677944     0.08600
H83         H  0.08397411  0.58427562  0.57638322     0.07700
N84         N  0.25280988  0.46555968  0.62213538    -0.36100
N85         N  0.27991367  0.49158919  0.63319031    -0.28300
C86         C  0.31544915  0.47203890  0.63780813    -0.03600
C87         C  0.31071161  0.43183694  0.62880440     0.05100
C88         C  0.27046008  0.42877598  0.61917884     0.03100
H89         H  0.34292286  0.48623269  0.64661559     0.08300
H90         H  0.25499003  0.40184788  0.61073275     0.07100
O91         O  0.95402942  0.02788861  0.53962714    -0.73000
O92         O  0.03885254  0.04213771  0.47370570    -0.73900
O93         O  0.95262529  0.04492068  0.47578718    -0.62600
O94         O  0.04171238  0.02519051  0.53754877    -0.71000
O95         O  0.03887056  0.95849310  0.52896245    -0.70500
O96         O  0.94941454  0.97817949  0.46745304    -0.61800
O97         O  0.03698721  0.97540720  0.46509604    -0.74300
O98         O  0.95261742  0.96109998  0.53122041    -0.73100
Cu99       Cu  0.99691704  0.03733836  0.50709428     1.04600
Cu100      Cu  0.99437902  0.96599204  0.49777072     1.04300
C101        C  0.93984792  0.99240131  0.54568244     0.93200
C102        C  0.05128930  0.01084224  0.45905830     0.92400
C103        C  0.93689472  0.01440406  0.46197122     0.84500
C104        C  0.05442491  0.98900753  0.54290742     0.90800
N105        N  0.24216269  0.89419885  0.65957217    -0.27300
N106        N  0.20384372  0.88296683  0.65461879    -0.35200
C107        C  0.19577192  0.84962605  0.67165393     0.01000
C108        C  0.23085499  0.83929012  0.68763268     0.07100
C109        C  0.25962694  0.86804575  0.67930144    -0.06000
H110        H  0.16642804  0.83437903  0.67264498     0.07700
H111        H  0.29038177  0.87103898  0.68814483     0.08900
Cu112      Cu  0.16409729  0.91460539  0.62563617     0.44200
Cu113      Cu  0.26776882  0.94791440  0.64375313     0.42000
Cu114      Cu  0.19751521  0.01748459  0.60871840     0.43900
N115        N  0.13212577  0.95447591  0.59698442    -0.34700
N116        N  0.14370162  0.99265721  0.59230458    -0.28900
C117        C  0.11722492  0.01081470  0.57317058    -0.05000
C118        C  0.08780224  0.98266218  0.56494515     0.07200
C119        C  0.09817399  0.94716342  0.58034533     0.01000
H120        H  0.12021665  0.04175849  0.56483473     0.08600
H121        H  0.08238138  0.91815740  0.57938166     0.07700
N122        N  0.25610096  0.03372943  0.62164085    -0.36100
N123        N  0.28236296  0.00787408  0.63383265    -0.28300
C124        C  0.31774061  0.02745309  0.63934496    -0.03600
C125        C  0.31346660  0.06776684  0.63033025     0.05100
C126        C  0.27404653  0.07044688  0.61894827     0.03100
H127        H  0.34464858  0.01310294  0.64882200     0.08300
H128        H  0.25933007  0.09719449  0.60956175     0.07100
N129        N  0.75208350  0.89842421  0.66203519    -0.27300
N130        N  0.79040502  0.88738715  0.65705668    -0.35200
C131        C  0.79800137  0.85293526  0.67286410     0.01000
C132        C  0.76258703  0.84153938  0.68804579     0.07100
C133        C  0.73411947  0.87096637  0.68058370    -0.06000
H134        H  0.82728460  0.83766023  0.67361275     0.07700
H135        H  0.70323673  0.87342252  0.68925154     0.08900
Cu136      Cu  0.83068955  0.92045544  0.62948863     0.44200
Cu137      Cu  0.72697659  0.95284074  0.64685342     0.42000
Cu138      Cu  0.79640293  0.02263718  0.61029592     0.43900
N139        N  0.86319348  0.96041911  0.60131438    -0.34700
N140        N  0.85150661  0.99833254  0.59581366    -0.28900
C141        C  0.87816829  0.01595443  0.57644045    -0.05000
C142        C  0.90769646  0.98764422  0.56891950     0.07200
C143        C  0.89726744  0.95270967  0.58499409     0.01000
H144        H  0.87478099  0.04626603  0.56698910     0.08600
H145        H  0.91269566  0.92355604  0.58428089     0.07700
N146        N  0.73642881  0.03728141  0.62078646    -0.36100
N147        N  0.71069816  0.01144469  0.63378752    -0.28300
C148        C  0.67429761  0.02985311  0.63729952    -0.03600
C149        C  0.67701988  0.06912091  0.62564874     0.05100
C150        C  0.71707140  0.07274740  0.61556702     0.03100
H151        H  0.64775013  0.01562929  0.64757699     0.08300
H152        H  0.73153261  0.09943232  0.60578048     0.07100
O153        O  0.54034730  0.45649108  0.02611372    -0.73000
O154        O  0.45225841  0.47299198  0.96344654    -0.73900
O155        O  0.53992251  0.47214846  0.96221872    -0.62600
O156        O  0.45382480  0.45724720  0.02736923    -0.71000
O157        O  0.45390267  0.52411407  0.03536508    -0.70500
O158        O  0.54021688  0.53898150  0.97041252    -0.61800
O159        O  0.45383639  0.53988410  0.97143576    -0.74300
O160        O  0.54184150  0.52335531  0.03423688    -0.73100
Cu161      Cu  0.49654636  0.46240958  0.99441656     1.04600
Cu162      Cu  0.49748236  0.53390106  0.00326443     1.04300
C163        C  0.55523703  0.48750767  0.03981454     0.93200
C164        C  0.43906569  0.50885850  0.95767683     0.92400
C165        C  0.55379941  0.50777372  0.95621877     0.84500
C166        C  0.44002809  0.48848294  0.04141178     0.90800
N167        N  0.64113128  0.50177311  0.90474227    -0.27300
N168        N  0.63171433  0.54080442  0.90185942    -0.35200
C169        C  0.59856403  0.54875544  0.91912139     0.01000
C170        C  0.58631068  0.51291769  0.93321891     0.07100
C171        C  0.61387645  0.48374224  0.92348345    -0.06000
H172        H  0.58493075  0.57860041  0.92173615     0.07700
H173        H  0.61541934  0.45227097  0.93084389     0.08900
Cu174      Cu  0.66565675  0.58162028  0.87552113     0.44200
Cu175      Cu  0.69432614  0.47634003  0.88730380     0.42000
Cu176      Cu  0.76832184  0.54872710  0.85769543     0.43900
N177        N  0.70568861  0.61464271  0.84787218    -0.34700
N178        N  0.74388581  0.60341989  0.84268447    -0.28900
C179        C  0.76147256  0.63021968  0.82341908    -0.05000
C180        C  0.73280711  0.65935437  0.81570230     0.07200
C181        C  0.69775197  0.64855981  0.83154006     0.01000
H182        H  0.79209785  0.62733927  0.81431639     0.08600
H183        H  0.66840778  0.66370806  0.83074536     0.07700
N184        N  0.78185721  0.48844124  0.86756213    -0.36100
N185        N  0.75435161  0.46147084  0.87675873    -0.28300
C186        C  0.77257213  0.42499012  0.88008898    -0.03600
C187        C  0.81356464  0.42941071  0.87306365     0.05100
C188        C  0.81836981  0.46996241  0.86508906     0.03100
H189        H  0.75736905  0.39756637  0.88791857     0.08300
H190        H  0.84624786  0.48488230  0.85778708     0.07100
N191        N  0.34980079  0.50357193  0.90865415    -0.27300
N192        N  0.36054438  0.54204077  0.90424113    -0.35200
C193        C  0.39459457  0.54980482  0.92055607     0.01000
C194        C  0.40590243  0.51432943  0.93549208     0.07100
C195        C  0.37696856  0.48565498  0.92734896    -0.06000
H196        H  0.40960425  0.57920090  0.92181674     0.07700
H197        H  0.37456676  0.45465353  0.93567098     0.08900
Cu198      Cu  0.32745766  0.58210474  0.87683354     0.44200
Cu199      Cu  0.29575751  0.47842516  0.89317977     0.42000
Cu200      Cu  0.22453489  0.54871239  0.85917086     0.43900
N201        N  0.28764791  0.61418242  0.84851935    -0.34700
N202        N  0.24941193  0.60282213  0.84349018    -0.28900
C203        C  0.23185463  0.62917605  0.82395640    -0.05000
C204        C  0.26057022  0.65815706  0.81587289     0.07200
C205        C  0.29564250  0.64776191  0.83178183     0.01000
H206        H  0.20114295  0.62615313  0.81503460     0.08600
H207        H  0.32497303  0.66304274  0.83086861     0.07700
N208        N  0.20989490  0.48917845  0.87033539    -0.36100
N209        N  0.23626896  0.46320306  0.88227630    -0.28300
C210        C  0.21771064  0.42703948  0.88642360    -0.03600
C211        C  0.17760471  0.43044943  0.87666920     0.05100
C212        C  0.17386283  0.47018037  0.86635514     0.03100
H213        H  0.23260091  0.40019215  0.89547123     0.08300
H214        H  0.14687303  0.48434403  0.85681464     0.07100
O215        O  0.77306403  0.20773349  0.21466988    -0.73000
O216        O  0.78714241  0.29626372  0.27774256    -0.73900
O217        O  0.78797811  0.21035379  0.27878931    -0.62600
O218        O  0.77307753  0.29515412  0.21342217    -0.71000
O219        O  0.70586267  0.29467153  0.22057127    -0.70500
O220        O  0.72078149  0.20919817  0.28603576    -0.61800
O221        O  0.71990624  0.29661331  0.28485546    -0.74300
O222        O  0.70586055  0.20854422  0.22187817    -0.73100
Cu223      Cu  0.78262898  0.25241877  0.24578400     1.04600
Cu224      Cu  0.71076106  0.25227267  0.25370122     1.04300
C225        C  0.73731016  0.19415630  0.20843633     0.93200
C226        C  0.75552089  0.31021224  0.29129252     0.92400
C227        C  0.75663441  0.19627592  0.29261151     0.84500
C228        C  0.73744012  0.30830932  0.20668360     0.90800
O229        O  0.45100655  0.95867806  0.97459169    -0.73000
O230        O  0.54108351  0.97676304  0.03594698    -0.73900
O231        O  0.45314877  0.97509502  0.03844929    -0.62600
O232        O  0.53733000  0.96006143  0.97212317    -0.71000
O233        O  0.53714486  0.02690645  0.96394528    -0.70500
O234        O  0.45211623  0.04182425  0.02982278    -0.61800
O235        O  0.53873442  0.04358168  0.02786153    -0.74300
O236        O  0.44929581  0.02541092  0.96599408    -0.73100
Cu237      Cu  0.49570571  0.96536147  0.00570469     1.04600
Cu238      Cu  0.49426802  0.03674755  0.99651215     1.04300
C239        C  0.43591770  0.98941343  0.96068763     0.93200
C240        C  0.55426656  0.01280096  0.04142437     0.92400
C241        C  0.43900158  0.01058770  0.04431740     0.84500
C242        C  0.55068061  0.99125596  0.95773941     0.90800
N243        N  0.24886526  0.89407559  0.84360569    -0.27300
N244        N  0.28641271  0.88195280  0.85011733    -0.35200
C245        C  0.29412975  0.84740870  0.83444487     0.01000
C246        C  0.25951422  0.83723253  0.81778416     0.07100
C247        C  0.23143159  0.86733771  0.82428616    -0.06000
H248        H  0.32308215  0.83149495  0.83454078     0.07700
H249        H  0.20149989  0.87106088  0.81413888     0.08900
Cu250      Cu  0.32555997  0.91478299  0.87885085     0.44200
Cu251      Cu  0.22502276  0.94963981  0.85662453     0.42000
Cu252      Cu  0.29264514  0.01895923  0.89512431     0.43900
N253        N  0.35746621  0.95531434  0.90707427    -0.34700
N254        N  0.34626254  0.99361316  0.91161438    -0.28900
C255        C  0.37311786  0.01172836  0.93055663    -0.05000
C256        C  0.40233247  0.98342786  0.93876134     0.07200
C257        C  0.39146239  0.94793156  0.92357982     0.01000
H258        H  0.37054233  0.04274659  0.93876903     0.08600
H259        H  0.40695674  0.91883074  0.92460669     0.07700
N260        N  0.23438843  0.03480107  0.88091539    -0.36100
N261        N  0.20949727  0.00901744  0.86703199    -0.28300
C262        C  0.17376146  0.02765939  0.86141106    -0.03600
C263        C  0.17594799  0.06705256  0.87272100     0.05100
C264        C  0.21503445  0.07059526  0.88467619     0.03100
H265        H  0.14831964  0.01350074  0.84970222     0.08300
H266        H  0.22813430  0.09695380  0.89592052     0.07100
N267        N  0.64005244  0.99579409  0.90852274    -0.27300
N268        N  0.62715286  0.95849665  0.90211419    -0.35200
C269        C  0.59238528  0.95143904  0.91787050     0.01000
C270        C  0.58285715  0.98619490  0.93449677     0.07100
C271        C  0.61362482  0.01368355  0.92786922    -0.06000
H272        H  0.57595790  0.92275878  0.91796690     0.07700
H273        H  0.61807091  0.04344806  0.93804691     0.08900
Cu274      Cu  0.65981211  0.91840453  0.87389405     0.44200
Cu275      Cu  0.69651811  0.01830687  0.89561253     0.42000
Cu276      Cu  0.76684476  0.94608001  0.86307949     0.43900
N277        N  0.70125582  0.88454019  0.84759000    -0.34700
N278        N  0.74057274  0.89369564  0.84533284    -0.28900
C279        C  0.75902679  0.86651961  0.82690388    -0.05000
C280        C  0.72997691  0.83917714  0.81660706     0.07200
C281        C  0.69363729  0.85151687  0.83009185     0.01000
H282        H  0.79084498  0.86791701  0.82019983     0.08600
H283        H  0.66374945  0.83792940  0.82697653     0.07700
N284        N  0.78327377  0.00491060  0.87519450    -0.36100
N285        N  0.75713557  0.03151712  0.88662363    -0.28300
C286        C  0.77631464  0.06731420  0.89087976    -0.03600
C287        C  0.81661214  0.06310888  0.88174337     0.05100
C288        C  0.81982756  0.02318234  0.87166735     0.03100
H289        H  0.76155978  0.09465022  0.89917266     0.08300
H290        H  0.84663247  0.00857848  0.86220909     0.07100
O291        O  0.21830436  0.29377945  0.21351657    -0.73000
O292        O  0.20142006  0.20635192  0.27721578    -0.73900
O293        O  0.20351781  0.29260825  0.27782867    -0.62600
O294        O  0.21621912  0.20622273  0.21291519    -0.71000
O295        O  0.28335095  0.20574673  0.22049541    -0.70500
O296        O  0.27070750  0.29175909  0.28508518    -0.61800
O297        O  0.26855387  0.20432512  0.28455657    -0.74300
O298        O  0.28541659  0.29163124  0.22094208    -0.73100
Cu299      Cu  0.20749640  0.24980238  0.24500853     1.04600
Cu300      Cu  0.27928339  0.24830675  0.25314891     1.04300
C301        C  0.25436971  0.30646894  0.20722616     0.93200
C302        C  0.23256171  0.19145118  0.29080128     0.92400
C303        C  0.23533796  0.30584915  0.29156880     0.84500
C304        C  0.25178081  0.19243549  0.20653570     0.90800
N305        N  0.24639357  0.10491517  0.15574145    -0.27300
N306        N  0.28473175  0.11628853  0.15123771    -0.35200
C307        C  0.29216241  0.15000627  0.16790980     0.01000
C308        C  0.25665974  0.16046793  0.18327952     0.07100
C309        C  0.22821041  0.13135995  0.17491786    -0.06000
H310        H  0.32155557  0.16507158  0.16945793     0.07700
H311        H  0.19743442  0.12806085  0.18367550     0.08900
Cu312      Cu  0.32568976  0.08329854  0.12435093     0.44200
Cu313      Cu  0.22295932  0.05017452  0.14024954     0.42000
Cu314      Cu  0.29714234  0.97775208  0.11119934     0.43900
N315        N  0.36037683  0.04274719  0.09834138    -0.34700
N316        N  0.35098815  0.00371631  0.09505964    -0.28900
C317        C  0.37866974  0.98602365  0.07656561    -0.05000
C318        C  0.40647806  0.01538761  0.06735192     0.07200
C319        C  0.39392261  0.05101798  0.08152565     0.01000
H320        H  0.37714150  0.95470266  0.06885071     0.08600
H321        H  0.40751966  0.08097142  0.07915186     0.07700
N322        N  0.23675108  0.96298889  0.12107277    -0.36100
N323        N  0.20949777  0.99005122  0.13031800    -0.28300
C324        C  0.17291340  0.97176627  0.13307904    -0.03600
C325        C  0.17720532  0.93121770  0.12511455     0.05100
C326        C  0.21815003  0.92658077  0.11787092     0.03100
H327        H  0.14537324  0.98681902  0.14080353     0.08300
H328        H  0.23311372  0.89899986  0.11023686     0.07100
N329        N  0.64573262  0.00871479  0.08855833    -0.27300
N330        N  0.63358138  0.04630225  0.09468412    -0.35200
C331        C  0.59874833  0.05362257  0.07912501     0.01000
C332        C  0.58833463  0.01869743  0.06298302     0.07100
C333        C  0.61872075  0.99090364  0.06959585    -0.06000
H334        H  0.58234676  0.08225155  0.07941849     0.07700
H335        H  0.62194898  0.96051582  0.06026217     0.08900
Cu336      Cu  0.66574146  0.08539170  0.12394945     0.44200
Cu337      Cu  0.70063664  0.98429232  0.10315898     0.42000
Cu338      Cu  0.76870797  0.05151285  0.14334824     0.43900
N339        N  0.70525896  0.11690819  0.15331252    -0.34700
N340        N  0.74330745  0.10540034  0.15885598    -0.28900
C341        C  0.76078164  0.13187390  0.17839587    -0.05000
C342        C  0.73228522  0.16115784  0.18596938     0.07200
C343        C  0.69734971  0.15072679  0.16979256     0.01000
H344        H  0.79135898  0.12885736  0.18754922     0.08600
H345        H  0.66823109  0.16632939  0.17020408     0.07700
N346        N  0.78424059  0.99265093  0.13097963    -0.36100
N347        N  0.75906251  0.96786988  0.11635962    -0.28300
C348        C  0.77766364  0.93182754  0.11201524    -0.03600
C349        C  0.81626282  0.93378785  0.12491442     0.05100
C350        C  0.81946728  0.97295437  0.13657291     0.03100
H351        H  0.76389403  0.90593374  0.10061761     0.08300
H352        H  0.84556547  0.98639872  0.14797301     0.07100
N353        N  0.64583451  0.49212627  0.08757708    -0.27300
N354        N  0.63447912  0.45394803  0.09248285    -0.35200
C355        C  0.59989678  0.44653930  0.07672489     0.01000
C356        C  0.58882372  0.48197115  0.06164559     0.07100
C357        C  0.61852442  0.51024432  0.06908314    -0.06000
H358        H  0.58431816  0.41740773  0.07596556     0.07700
H359        H  0.62128857  0.54105272  0.06042420     0.08900
Cu360      Cu  0.66739556  0.41395166  0.11999039     0.44200
Cu361      Cu  0.70073970  0.51624525  0.10240743     0.42000
Cu362      Cu  0.77247805  0.44454071  0.13438375     0.43900
N363        N  0.70687940  0.38241702  0.14884527    -0.34700
N364        N  0.74566920  0.39261754  0.15285851    -0.28900
C365        C  0.76260707  0.36703738  0.17328847    -0.05000
C366        C  0.73297374  0.33982069  0.18295896     0.07200
C367        C  0.69798182  0.35043841  0.16705199     0.01000
H368        H  0.79367069  0.36937696  0.18161797     0.08600
H369        H  0.66811296  0.33639982  0.16891709     0.07700
N370        N  0.78793205  0.50378341  0.12211897    -0.36100
N371        N  0.76089782  0.53054821  0.11206296    -0.28300
C372        C  0.77918540  0.56701300  0.10874657    -0.03600
C373        C  0.81979233  0.56288881  0.11673550     0.05100
C374        C  0.82438539  0.52246002  0.12512981     0.03100
H375        H  0.76404241  0.59447344  0.10105344     0.08300
H376        H  0.85177471  0.50808282  0.13381638     0.07100
N377        N  0.25040935  0.39560094  0.15789490    -0.27300
N378        N  0.28836798  0.38369054  0.15253446    -0.35200
C379        C  0.29548179  0.34937204  0.16869190     0.01000
C380        C  0.26011281  0.33911926  0.18448410     0.07100
C381        C  0.23218366  0.36894875  0.17692009    -0.06000
H382        H  0.32447904  0.33357249  0.16943708     0.07700
H383        H  0.20167553  0.37251067  0.18610579     0.08900
Cu384      Cu  0.32886076  0.41630057  0.12443514     0.44200
Cu385      Cu  0.22690223  0.45108276  0.14415566     0.42000
Cu386      Cu  0.29678315  0.51988521  0.10686694     0.43900
N387        N  0.36187889  0.45621545  0.09616444    -0.34700
N388        N  0.35089005  0.49446767  0.09113003    -0.28900
C389        C  0.37794941  0.51207932  0.07202134    -0.05000
C390        C  0.40708918  0.48348035  0.06415696     0.07200
C391        C  0.39591290  0.44834388  0.07977663     0.01000
H392        H  0.37533575  0.54281400  0.06321415     0.08600
H393        H  0.41101387  0.41903193  0.07887923     0.07700
N394        N  0.23868133  0.53662514  0.12112497    -0.36100
N395        N  0.21316190  0.51134091  0.13496804    -0.28300
C396        C  0.17814477  0.53106985  0.14120250    -0.03600
C397        C  0.18169778  0.57064027  0.13055638     0.05100
C398        C  0.22032358  0.57300943  0.11772815     0.03100
H399        H  0.15163752  0.51723530  0.15181586     0.08300
H400        H  0.23393149  0.59914471  0.10651183     0.07100
N401        N  0.13733630  0.00368253  0.40675576    -0.27300
N402        N  0.12697455  0.04225298  0.40244861    -0.35200
C403        C  0.09405934  0.05063209  0.41988168     0.01000
C404        C  0.08301903  0.01549784  0.43547801     0.07100
C405        C  0.11095270  0.98634936  0.42648199    -0.06000
H406        H  0.07974492  0.08027893  0.42154593     0.07700
H407        H  0.11338862  0.95545412  0.43499596     0.08900
Cu408      Cu  0.15949626  0.08193446  0.37403490     0.44200
Cu409      Cu  0.19036592  0.97762919  0.38984911     0.42000
Cu410      Cu  0.26144417  0.04680646  0.35437958     0.43900
N411        N  0.19949113  0.11400207  0.34554201    -0.34700
N412        N  0.23738476  0.10205872  0.33995615    -0.28900
C413        C  0.25523584  0.12870991  0.32071124    -0.05000
C414        C  0.22711096  0.15850748  0.31333777     0.07200
C415        C  0.19202818  0.14823554  0.32940054     0.01000
H416        H  0.28569647  0.12532837  0.31140353     0.08600
H417        H  0.16302740  0.16405332  0.32897407     0.07700
N418        N  0.27538346  0.98658499  0.36452765    -0.36100
N419        N  0.24899484  0.96098219  0.37704635    -0.28300
C420        C  0.26697265  0.92442020  0.38054698    -0.03600
C421        C  0.30675866  0.92710255  0.36978169     0.05100
C422        C  0.31081232  0.96692597  0.35955067     0.03100
H423        H  0.25194628  0.89785501  0.39002600     0.08300
H424        H  0.33776419  0.98078269  0.34960005     0.07100
N425        N  0.84711790  0.01103730  0.41315548    -0.27300
N426        N  0.85952289  0.04875105  0.40750682    -0.35200
C427        C  0.89380043  0.05590071  0.42383347     0.01000
C428        C  0.90347994  0.02078425  0.43998449     0.07100
C429        C  0.87333932  0.99304720  0.43255989    -0.06000
H430        H  0.91033414  0.08452124  0.42403341     0.07700
H431        H  0.86972560  0.96251488  0.44158714     0.08900
Cu432      Cu  0.82848136  0.08844628  0.37793558     0.44200
Cu433      Cu  0.79291801  0.98614228  0.39763259     0.42000
Cu434      Cu  0.72690470  0.05288988  0.35652355     0.43900
N435        N  0.78915374  0.12005047  0.34839958    -0.34700
N436        N  0.75152358  0.10765462  0.34222026    -0.28900
C437        C  0.73387938  0.13390114  0.32267474    -0.05000
C438        C  0.76180777  0.16402321  0.31566250     0.07200
C439        C  0.79664458  0.15432761  0.33224243     0.01000
H440        H  0.70372571  0.12997769  0.31291986     0.08600
H441        H  0.82548793  0.17055349  0.33212724     0.07700
N442        N  0.71012462  0.99455968  0.36913922    -0.36100
N443        N  0.73457856  0.96977966  0.38431160    -0.28300
C444        C  0.71505022  0.93430802  0.38933281    -0.03600
C445        C  0.67630878  0.93695760  0.37669851     0.05100
C446        C  0.67444051  0.97548655  0.36382458     0.03100
H447        H  0.72840314  0.90837655  0.40088961     0.08300
H448        H  0.64890787  0.98883920  0.35172550     0.07100
N449        N  0.84917387  0.49285076  0.41054198    -0.27300
N450        N  0.85972229  0.45441927  0.40592232    -0.35200
C451        C  0.89473278  0.44694978  0.42118233     0.01000
C452        C  0.90694683  0.48265788  0.43552651     0.07100
C453        C  0.87743098  0.51104596  0.42820532    -0.06000
H454        H  0.90981079  0.41762481  0.42213471     0.07700
H455        H  0.87539253  0.54205841  0.43651396     0.08900
Cu456      Cu  0.82536437  0.41469595  0.37890296     0.44200
Cu457      Cu  0.79437211  0.51795524  0.39641912     0.42000
Cu458      Cu  0.72385990  0.45160930  0.35794323     0.43900
N459        N  0.78605320  0.38474758  0.34875444    -0.34700
N460        N  0.74861538  0.39738319  0.34233690    -0.28900
C461        C  0.73169695  0.37203912  0.32170974    -0.05000
C462        C  0.76004013  0.34247630  0.31434765     0.07200
C463        C  0.79417358  0.35141492  0.33182567     0.01000
H464        H  0.70174028  0.37607803  0.31167134     0.08600
H465        H  0.82297799  0.33523873  0.33192609     0.07700
N466        N  0.70951868  0.51067341  0.37076560    -0.36100
N467        N  0.73559698  0.53518511  0.38474670    -0.28300
C468        C  0.71765129  0.57150061  0.38946447    -0.03600
C469        C  0.67827158  0.56979844  0.37787010     0.05100
C470        C  0.67435432  0.53082215  0.36597318     0.03100
H471        H  0.73261415  0.59745889  0.39989336     0.08300
H472        H  0.64787980  0.51802999  0.35461972     0.07100
N473        N  0.14673799  0.49324820  0.40987446    -0.27300
N474        N  0.13517434  0.45508616  0.40516138    -0.35200
C475        C  0.10077322  0.44788059  0.42128456     0.01000
C476        C  0.08993625  0.48342392  0.43638773     0.07100
C477        C  0.11967871  0.51154879  0.42853503    -0.06000
H478        H  0.08503117  0.41884363  0.42217207     0.07700
H479        H  0.12255711  0.54246175  0.43693894     0.08900
Cu480      Cu  0.16756677  0.41496336  0.37710555     0.44200
Cu481      Cu  0.20148115  0.51717085  0.39404615     0.42000
Cu482      Cu  0.27063417  0.44753884  0.35655565     0.43900
N483        N  0.20615380  0.38258128  0.34782346    -0.34700
N484        N  0.24428905  0.39356804  0.34185804    -0.28900
C485        C  0.26077239  0.36698660  0.32198260    -0.05000
C486        C  0.23148175  0.33826963  0.31459364     0.07200
C487        C  0.19716511  0.34905305  0.33128957     0.01000
H488        H  0.29109113  0.36975916  0.31227972     0.08600
H489        H  0.16764591  0.33409673  0.33102288     0.07700
N490        N  0.28613725  0.50687630  0.36783915    -0.36100
N491        N  0.26056727  0.53239457  0.38125753    -0.28300
C492        C  0.27938243  0.56843892  0.38530084    -0.03600
C493        C  0.31877619  0.56550766  0.37393588     0.05100
C494        C  0.32185717  0.52613069  0.36275468     0.03100
H495        H  0.26513446  0.59495144  0.39541793     0.08300
H496        H  0.34820524  0.51237374  0.35194872     0.07100
O497        O  0.95514588  0.70503888  0.09800916    -0.73000
O498        O  0.03884713  0.79404014  0.10022561    -0.73900
O499        O  0.04146299  0.70764006  0.10010237    -0.62600
O500        O  0.95250077  0.79161336  0.09867668    -0.71000
O501        O  0.95236424  0.79267951  0.14934016    -0.70500
O502        O  0.03812836  0.70535016  0.15062650    -0.61800
O503        O  0.03936295  0.79161435  0.15103222    -0.74300
O504        O  0.95107006  0.70620227  0.14872603    -0.73100
Cu505      Cu  0.99702042  0.74959556  0.09750877     1.04600
Cu506      Cu  0.99511938  0.74894358  0.15172990     1.04300
C507        C  0.93961141  0.69185525  0.12292007     0.93200
C508        C  0.05276641  0.80636464  0.12588341     0.92400
C509        C  0.05397529  0.69304317  0.12553504     0.84500
C510        C  0.93851364  0.80577544  0.12381520     0.90800
O511        O  0.45412395  0.70776852  0.39484162    -0.73000
O512        O  0.53711157  0.79734713  0.39623685    -0.73900
O513        O  0.45032837  0.79396305  0.39405810    -0.62600
O514        O  0.54053488  0.71084524  0.39670059    -0.71000
O515        O  0.54205999  0.71021144  0.34604440    -0.70500
O516        O  0.45251375  0.79360444  0.34341350    -0.61800
O517        O  0.53928344  0.79689146  0.34559438    -0.74300
O518        O  0.45559482  0.70701494  0.34418508    -0.73100
Cu519      Cu  0.49548412  0.75255691  0.39720127     1.04600
Cu520      Cu  0.49748251  0.75196827  0.34304517     1.04300
C521        C  0.44170773  0.69300861  0.36943446     0.93200
C522        C  0.55142864  0.81143577  0.37116480     0.92400
C523        C  0.43700928  0.80689716  0.36830830     0.84500
C524        C  0.55512149  0.69681023  0.37168444     0.90800
O525        O  0.53752955  0.20702659  0.65468209    -0.73000
O526        O  0.45218022  0.29496170  0.65612500    -0.73900
O527        O  0.45083985  0.20840040  0.65557135    -0.62600
O528        O  0.53898865  0.29390638  0.65514280    -0.71000
O529        O  0.53784485  0.29442390  0.60448907    -0.70500
O530        O  0.45010020  0.20903152  0.60485487    -0.61800
O531        O  0.45104332  0.29517074  0.60543499    -0.74300
O532        O  0.53695633  0.20786078  0.60398488    -0.73100
Cu533      Cu  0.49496100  0.25105802  0.65714943     1.04600
Cu534      Cu  0.49399911  0.25164248  0.60294698     1.04300
C535        C  0.55063601  0.19333951  0.62912520     0.93200
C536        C  0.43790722  0.30885984  0.63099235     0.92400
C537        C  0.43630602  0.19540503  0.63022626     0.84500
C538        C  0.55221632  0.30798230  0.62971547     0.90800
O539        O  0.95259237  0.20557251  0.90043265    -0.73000
O540        O  0.03908576  0.29173357  0.89925398    -0.73900
O541        O  0.95264276  0.29226813  0.90008032    -0.62600
O542        O  0.03896216  0.20539034  0.89934766    -0.71000
O543        O  0.03956039  0.20693733  0.84848823    -0.70500
O544        O  0.94982752  0.28968524  0.84933511    -0.61800
O545        O  0.03665919  0.29317446  0.84858586    -0.74300
O546        O  0.95310097  0.20333248  0.84973737    -0.73100
Cu547      Cu  0.99583199  0.24877206  0.90155662     1.04600
Cu548      Cu  0.99473720  0.24832498  0.84725139     1.04300
C549        C  0.93965185  0.19018831  0.87537834     0.93200
C550        C  0.05143045  0.30638735  0.87378891     0.92400
C551        C  0.93731557  0.30425846  0.87474753     0.84500
C552        C  0.05296038  0.19281991  0.87376050     0.90800
C553        C  0.35051199  0.59777336  0.37319908    -0.00200
C554        C  0.37496928  0.60199386  0.34698417    -0.12000
C555        C  0.40474923  0.63269127  0.34497632     0.02100
C556        C  0.41066347  0.65986972  0.36976810    -0.00300
C557        C  0.38657883  0.65498976  0.39617052    -0.12000
C558        C  0.35687819  0.62440175  0.39812084     0.02000
H559        H  0.37049006  0.58147091  0.32779900     0.14900
H560        H  0.39088127  0.67522460  0.41554736     0.14900
C561        C  0.33482589  0.61997329  0.42656453     0.36600
C562        C  0.42923713  0.63468838  0.31751629     0.36500
N563        N  0.31733766  0.61646031  0.44944336    -0.43800
N564        N  0.44874355  0.63613056  0.29544113    -0.43800
C565        C  0.64745621  0.60289167  0.37669911    -0.00200
C566        C  0.62312171  0.60663077  0.35042966    -0.12000
C567        C  0.59317637  0.63691473  0.34814001     0.02100
C568        C  0.58709602  0.66462184  0.37257729    -0.00300
C569        C  0.61133212  0.66062689  0.39898057    -0.12000
C570        C  0.64117738  0.63015790  0.40127196     0.02000
H571        H  0.62749048  0.58570348  0.33148728     0.14900
H572        H  0.60679670  0.68123605  0.41809089     0.14900
C573        C  0.66318542  0.62623601  0.42975299     0.36600
C574        C  0.56816303  0.63741250  0.32091916     0.36500
N575        N  0.68062857  0.62302086  0.45266341    -0.43800
N576        N  0.54817284  0.63752445  0.29907495    -0.43800
C577        C  0.58272077  0.84433767  0.37211759    -0.00200
C578        C  0.60562143  0.84958522  0.39907515    -0.12000
C579        C  0.63595973  0.87960126  0.40120937     0.02100
C580        C  0.64410438  0.90517133  0.37592660    -0.00300
C581        C  0.62069277  0.90066224  0.34923523    -0.12000
C582        C  0.59027310  0.87069583  0.34707546     0.02000
H583        H  0.59995850  0.83004224  0.41866380     0.14900
H584        H  0.62643788  0.92043374  0.32978684     0.14900
C585        C  0.56670495  0.86871762  0.31917895     0.36600
C586        C  0.65683821  0.88458089  0.43008835     0.36500
N587        N  0.54785122  0.86730579  0.29679767    -0.43800
N588        N  0.67340341  0.88858793  0.45329673    -0.43800
C589        C  0.40307919  0.83707446  0.36760500    -0.00200
C590        C  0.37635393  0.83904875  0.39275697    -0.12000
C591        C  0.34427374  0.86726593  0.39371125     0.02100
C592        C  0.33866751  0.89492319  0.36925916    -0.00300
C593        C  0.36511565  0.89281912  0.34399881    -0.12000
C594        C  0.39678161  0.86411467  0.34277494     0.02000
H595        H  0.38047600  0.81836355  0.41188989     0.14900
H596        H  0.36095576  0.91369975  0.32498838     0.14900
C597        C  0.42279653  0.86408795  0.31606901     0.36600
C598        C  0.31883680  0.86809523  0.42070399     0.36500
N599        N  0.44343427  0.86411196  0.29455110    -0.43800
N600        N  0.29849296  0.86850351  0.44237558    -0.43800
C601        C  0.14957512  0.60226972  0.12995395    -0.00200
C602        C  0.14182238  0.62256672  0.10236839    -0.12000
C603        C  0.11077397  0.65172853  0.10012338     0.02100
C604        C  0.08703260  0.66178403  0.12622535    -0.00300
C605        C  0.09547035  0.64167819  0.15401131    -0.12000
C606        C  0.12617999  0.61207142  0.15601767     0.02000
H607        H  0.15966390  0.61498840  0.08222593     0.14900
H608        H  0.07797447  0.64894710  0.17436645     0.14900
C609        C  0.13406720  0.59335243  0.18534626     0.36600
C610        C  0.10443260  0.67053756  0.07062890     0.36500
N611        N  0.14041836  0.57847970  0.20888869    -0.43800
N612        N  0.09942541  0.68534063  0.04688035    -0.43800
C613        C  0.85076256  0.59558805  0.11805621    -0.00200
C614        C  0.84222738  0.63085757  0.13506286    -0.12000
C615        C  0.87090477  0.66250501  0.13719797     0.02100
C616        C  0.90857386  0.65926818  0.12167975    -0.00300
C617        C  0.91667228  0.62442961  0.10406863    -0.12000
C618        C  0.88828201  0.59250935  0.10234703     0.02000
H619        H  0.81317802  0.63353300  0.14687372     0.14900
H620        H  0.94541820  0.62203943  0.09180713     0.14900
C621        C  0.89759335  0.55776148  0.08331163     0.36600
C622        C  0.86028664  0.69866949  0.15427788     0.36500
N623        N  0.90502176  0.53003303  0.06791828    -0.43800
N624        N  0.85168450  0.72773549  0.16783057    -0.43800
C625        C  0.84745850  0.90107911  0.12521158    -0.00200
C626        C  0.85184600  0.87648892  0.09915626    -0.12000
C627        C  0.88091367  0.84522472  0.09809784     0.02100
C628        C  0.90654816  0.83799300  0.12364011    -0.00300
C629        C  0.90151062  0.86222346  0.14992637    -0.12000
C630        C  0.87234972  0.89339792  0.15095689     0.02000
H631        H  0.83259342  0.88188878  0.07935696     0.14900
H632        H  0.92049134  0.85689818  0.16987658     0.14900
C633        C  0.86735851  0.91555919  0.17925818     0.36600
C634        C  0.88263045  0.82048854  0.07079426     0.36500
N635        N  0.86331214  0.93312047  0.20202504    -0.43800
N636        N  0.88380186  0.80069308  0.04888990    -0.43800
C637        C  0.14503299  0.89947790  0.12494256    -0.00200
C638        C  0.15338978  0.86138107  0.13820911    -0.12000
C639        C  0.12341771  0.83083101  0.13925130     0.02100
C640        C  0.08466417  0.83801171  0.12626511    -0.00300
C641        C  0.07652244  0.87566591  0.11242373    -0.12000
C642        C  0.10612370  0.90653174  0.11192907     0.02000
H643        H  0.18323218  0.85566409  0.14812960     0.14900
H644        H  0.04682737  0.88101812  0.10211989     0.14900
C645        C  0.09622707  0.94449554  0.09691894     0.36600
C646        C  0.13348025  0.79190916  0.15275486     0.36500
N647        N  0.08819981  0.97489505  0.08488648    -0.43800
N648        N  0.14147121  0.76064026  0.16347393    -0.43800
C649        C  0.84856790  0.09518150  0.88081125    -0.00200
C650        C  0.87543817  0.09654675  0.85576475    -0.12000
C651        C  0.90525481  0.12711714  0.85333855     0.02100
C652        C  0.90867395  0.15713875  0.87644292    -0.00300
C653        C  0.88235440  0.15513511  0.90180468    -0.12000
C654        C  0.85258567  0.12463152  0.90420293     0.02000
H655        H  0.87284904  0.07390292  0.83777879     0.14900
H656        H  0.88492299  0.17762125  0.91991064     0.14900
C657        C  0.82787074  0.12342293  0.93157498     0.36600
C658        C  0.93265371  0.12595536  0.82743019     0.36500
N659        N  0.80820672  0.12254014  0.95358803    -0.43800
N660        N  0.95463653  0.12490400  0.80668782    -0.43800
C661        C  0.14367642  0.09875151  0.87256036    -0.00200
C662        C  0.15514833  0.13967227  0.86797639    -0.12000
C663        C  0.12590040  0.17080272  0.86800832     0.02100
C664        C  0.08457036  0.16121140  0.87332366    -0.00300
C665        C  0.07290244  0.12063347  0.87802113    -0.12000
C666        C  0.10190686  0.08933408  0.87747473     0.02000
H667        H  0.18697572  0.14732710  0.86399916     0.14900
H668        H  0.04095434  0.11340587  0.88204832     0.14900
C669        C  0.08785004  0.04824324  0.88309911     0.36600
C670        C  0.13887910  0.21237558  0.86280791     0.36500
N671        N  0.07626503  0.01537680  0.88749005    -0.43800
N672        N  0.14913681  0.24571781  0.85860573    -0.43800
C673        C  0.08349118  0.33842794  0.87385688    -0.00200
C674        C  0.11001162  0.34079975  0.89910520    -0.12000
C675        C  0.14079348  0.37039417  0.90057139     0.02100
C676        C  0.14564402  0.39845662  0.87632492    -0.00300
C677        C  0.11890709  0.39649008  0.85125483    -0.12000
C678        C  0.08807012  0.36689665  0.84976980     0.02000
H679        H  0.10674391  0.31940410  0.91788824     0.14900
H680        H  0.12222233  0.41808878  0.83260944     0.14900
C681        C  0.06084675  0.36760202  0.82376832     0.36600
C682        C  0.16550389  0.37236945  0.92791642     0.36500
N683        N  0.03902364  0.36832193  0.80293494    -0.43800
N684        N  0.18515096  0.37392582  0.94990953    -0.43800
C685        C  0.84538038  0.39751176  0.87410909    -0.00200
C686        C  0.83810613  0.36026972  0.85923597    -0.12000
C687        C  0.86777583  0.32952179  0.85910789     0.02100
C688        C  0.90502310  0.33551429  0.87474327    -0.00300
C689        C  0.91188156  0.37227514  0.89031378    -0.12000
C690        C  0.88264435  0.40342065  0.88981674     0.02000
H691        H  0.80943137  0.35544821  0.84731281     0.14900
H692        H  0.94043426  0.37690391  0.90245126     0.14900
C693        C  0.89109701  0.44057984  0.90639291     0.36600
C694        C  0.85889272  0.29165078  0.84356401     0.36500
N695        N  0.89787182  0.47035162  0.91969335    -0.43800
N696        N  0.85188472  0.26122804  0.83118799    -0.43800
C697        C  0.64451385  0.10078482  0.62574778    -0.00200
C698        C  0.61693159  0.10190871  0.65038338    -0.12000
C699        C  0.58606871  0.13142001  0.65194953     0.02100
C700        C  0.58225350  0.16084608  0.62844775    -0.00300
C701        C  0.60924673  0.15914397  0.60346478    -0.12000
C702        C  0.64009967  0.12961214  0.60189448     0.02000
H703        H  0.61965808  0.07981344  0.66873428     0.14900
H704        H  0.60642556  0.18118147  0.58507226     0.14900
C705        C  0.66550382  0.12878290  0.57488197     0.36600
C706        C  0.55794225  0.12965660  0.67740265     0.36500
N707        N  0.68568397  0.12829380  0.55312530    -0.43800
N708        N  0.53537666  0.12802364  0.69777323    -0.43800
C709        C  0.34450405  0.10080573  0.63126214    -0.00200
C710        C  0.34523316  0.12951328  0.60740869    -0.12000
C711        C  0.37432101  0.16087050  0.60676162     0.02100
C712        C  0.40375312  0.16388140  0.63035548    -0.00300
C713        C  0.40223774  0.13593386  0.65468923    -0.12000
C714        C  0.37302866  0.10467032  0.65539179     0.02000
H715        H  0.32319484  0.12727043  0.58894352     0.14900
H716        H  0.42423801  0.13825882  0.67318472     0.14900
C717        C  0.37216238  0.07821697  0.68180088     0.36600
C718        C  0.37216195  0.19026678  0.58218150     0.36500
N719        N  0.37157404  0.05718735  0.70307560    -0.43800
N720        N  0.37022454  0.21387801  0.56254101    -0.43800
C721        C  0.40540802  0.34044974  0.63118690    -0.00200
C722        C  0.37840436  0.34241334  0.60621643    -0.12000
C723        C  0.34711133  0.37144155  0.60508615     0.02100
C724        C  0.34243459  0.39961990  0.62926529    -0.00300
C725        C  0.36953372  0.39793934  0.65413215    -0.12000
C726        C  0.40065017  0.36868095  0.65541449     0.02000
H727        H  0.38164021  0.32104987  0.58742110     0.14900
H728        H  0.36630492  0.41955707  0.67276593     0.14900
C729        C  0.42789211  0.36941577  0.68140474     0.36600
C730        C  0.32158513  0.37269395  0.57815383     0.36500
N731        N  0.44960612  0.37016221  0.70230177    -0.43800
N732        N  0.30120018  0.37364365  0.55652359    -0.43800
C733        C  0.64540353  0.40148070  0.62488165    -0.00200
C734        C  0.62199230  0.39702939  0.65159566    -0.12000
C735        C  0.59200618  0.36659586  0.65403952     0.02100
C736        C  0.58443516  0.34009522  0.62907017    -0.00300
C737        C  0.60775089  0.34491258  0.60225923    -0.12000
C738        C  0.63802543  0.37500755  0.60000223     0.02000
H739        H  0.62746545  0.41718782  0.67085453     0.14900
H740        H  0.60238296  0.32501614  0.58283580     0.14900
C741        C  0.65974638  0.37901502  0.57138416     0.36600
C742        C  0.56911773  0.36410726  0.68224075     0.36500
N743        N  0.67706334  0.38211189  0.54839828    -0.43800
N744        N  0.55098258  0.36216861  0.70494124    -0.43800
loop_ 
_geom_bond_atom_site_label_1 
_geom_bond_atom_site_label_2 
_geom_bond_distance 
_geom_bond_site_symmetry_2 
_ccdc_geom_bond_type 
O1           Cu9   2.028       .  S
O1           C11   1.281       .  A
O2           Cu9   2.018       .  S
O2           C12   1.278       .  A
O3           Cu9   2.006       .  S
O3           C13   1.276       .  A
O4           Cu9   2.016       .  S
O4           C14   1.278       .  A
O5          Cu10   2.011       .  S
O5           C14   1.277       .  A
O6          Cu10   2.022       .  S
O6           C13   1.280       .  A
O7          Cu10   2.019       .  S
O7           C12   1.279       .  A
O8          Cu10   2.007       .  S
O8           C11   1.276       .  A
Cu9         Cu10   2.375       .  S
C11         C280   1.474       .  S
C12          C46   1.474       .  S
C13         C132   1.471       .  S
C14         C180   1.470       .  S
O15         Cu23   2.005       .  S
O15          C25   1.276       .  A
O16         Cu23   2.017       .  S
O16          C26   1.279       .  A
O17         Cu23   2.019       .  S
O17          C27   1.279       .  A
O18         Cu23   2.006       .  S
O18          C28   1.277       .  A
O19         Cu24   2.017       .  S
O19          C28   1.279       .  A
O20         Cu24   2.006       .  S
O20          C27   1.276       .  A
O21         Cu24   2.007       .  S
O21          C26   1.277       .  A
O22         Cu24   2.019       .  S
O22          C25   1.279       .  A
Cu23        Cu24   2.376       .  S
C25         C108   1.470       .  S
C26         C204   1.469       .  S
C27         C246   1.469       .  S
C28          C70   1.468       .  S
O29         Cu37   2.016   1_455  S
O29          C39   1.279       .  A
O30         Cu37   2.006       .  S
O30          C40   1.276       .  A
O31         Cu37   2.012   1_455  S
O31          C41   1.277       .  A
O32         Cu37   2.022       .  S
O32          C42   1.280       .  A
O33         Cu38   2.011       .  S
O33          C42   1.277       .  A
O34         Cu38   2.023   1_455  S
O34          C41   1.279       .  A
O35         Cu38   2.019       .  S
O35          C40   1.279       .  A
O36         Cu38   2.008   1_455  S
O36          C39   1.277       .  A
Cu37        Cu38   2.375       .  S
C39          C80   1.470       .  S
C40         C452   1.469       .  S
C41         C476   1.473       .  S
C42          C56   1.472       .  S
N43          N44   1.324       .  A
N43          C47   1.345       .  A
N43         Cu51   2.074       .  S
N44          C45   1.350       .  A
N44         Cu50   2.095       .  S
C45          C46   1.387       .  A
C45          H48   1.082       .  S
C46          C47   1.381       .  A
C47          H49   1.082       .  S
Cu50         N53   2.095       .  S
Cu51         N61   2.074       .  S
Cu52         N54   2.070       .  S
Cu52         N60   2.070       .  S
N53          N54   1.323       .  A
N53          C57   1.349       .  A
N54          C55   1.345       .  A
C55          C56   1.381       .  A
C55          H58   1.082       .  S
C56          C57   1.387       .  A
C57          H59   1.082       .  S
N60          N61   1.321       .  A
N60          C64   1.344       .  A
N61          C62   1.345       .  A
C62          C63   1.385       .  A
C62          H65   1.082       .  S
C63         C733   1.483       .  S
C63          C64   1.385       .  A
C64          H66   1.082       .  S
N67          N68   1.323       .  A
N67          C71   1.344       .  A
N67         Cu75   2.067       .  S
N68          C69   1.347       .  A
N68         Cu74   2.086       .  S
C69          C70   1.385       .  A
C69          H72   1.082       .  S
C70          C71   1.380       .  A
C71          H73   1.082       .  S
Cu74         N77   2.085       .  S
Cu75         N85   2.068       .  S
Cu76         N78   2.070       .  S
Cu76         N84   2.070       .  S
N77          N78   1.323       .  A
N77          C81   1.348       .  A
N78          C79   1.344       .  A
C79          C80   1.380       .  A
C79          H82   1.082       .  S
C80          C81   1.386       .  A
C81          H83   1.082       .  S
N84          N85   1.321       .  A
N84          C88   1.344       .  A
N85          C86   1.344       .  A
C86          C87   1.384       .  A
C86          H89   1.082       .  S
C87         C724   1.482       .  S
C87          C88   1.386       .  A
C88          H90   1.082       .  S
O91         Cu99   2.020       .  S
O91         C101   1.279   1_545  A
O92         Cu99   2.008   1_455  S
O92         C102   1.277       .  A
O93         Cu99   2.009       .  S
O93         C103   1.276       .  A
O94         Cu99   2.020   1_455  S
O94         C104   1.279   1_545  A
O95        Cu100   2.010   1_455  S
O95         C104   1.277       .  A
O96        Cu100   2.020       .  S
O96         C103   1.280   1_565  A
O97        Cu100   2.018   1_455  S
O97         C102   1.279   1_565  A
O98        Cu100   2.007       .  S
O98         C101   1.276       .  A
Cu99       Cu100   2.376   1_545  S
C101        C142   1.470       .  S
C102        C404   1.470       .  S
C103        C428   1.471       .  S
C104        C118   1.471       .  S
N105        N106   1.324       .  A
N105        C109   1.344       .  A
N105       Cu113   2.067       .  S
N106        C107   1.348       .  A
N106       Cu112   2.092       .  S
C107        C108   1.386       .  A
C107        H110   1.082       .  S
C108        C109   1.379       .  A
C109        H111   1.082       .  S
Cu112       N115   2.092       .  S
Cu113       N123   2.068   1_565  S
Cu114       N116   2.067   1_545  S
Cu114       N122   2.067       .  S
N115        N116   1.323       .  A
N115        C119   1.349       .  A
N116        C117   1.344   1_565  A
C117        C118   1.380   1_545  A
C117        H120   1.082       .  S
C118        C119   1.387       .  A
C119        H121   1.082       .  S
N122        N123   1.320       .  A
N122        C126   1.343       .  A
N123        C124   1.344       .  A
C124        C125   1.386       .  A
C124        H127   1.081       .  S
C125        C709   1.484       .  S
C125        C126   1.385       .  A
C126        H128   1.082       .  S
N129        N130   1.323       .  A
N129        C133   1.345       .  A
N129       Cu137   2.074       .  S
N130        C131   1.347       .  A
N130       Cu136   2.087       .  S
C131        C132   1.385       .  A
C131        H134   1.082       .  S
C132        C133   1.381       .  A
C133        H135   1.082       .  S
Cu136       N139   2.087       .  S
Cu137       N147   2.075   1_565  S
Cu138       N140   2.071   1_545  S
Cu138       N146   2.072       .  S
N139        N140   1.323       .  A
N139        C143   1.347       .  A
N140        C141   1.345   1_565  A
C141        C142   1.381   1_545  A
C141        H144   1.082       .  S
C142        C143   1.385       .  A
C143        H145   1.082       .  S
N146        N147   1.321       .  A
N146        C150   1.345       .  A
N147        C148   1.345       .  A
C148        C149   1.387       .  A
C148        H151   1.082       .  S
C149        C697   1.487       .  S
C149        C150   1.387       .  A
C150        H152   1.082       .  S
O153       Cu161   2.003   1_554  S
O153        C163   1.276       .  A
O154       Cu161   2.013       .  S
O154        C164   1.278       .  A
O155       Cu161   2.023       .  S
O155        C165   1.279       .  A
O156       Cu161   2.013   1_554  S
O156        C166   1.277       .  A
O157       Cu162   2.025       .  S
O157        C166   1.280       .  A
O158       Cu162   2.010   1_556  S
O158        C165   1.277       .  A
O159       Cu162   2.003   1_556  S
O159        C164   1.276       .  A
O160       Cu162   2.015       .  S
O160        C163   1.279       .  A
Cu161      Cu162   2.376   1_556  S
C163        C356   1.467       .  S
C164        C194   1.466       .  S
C165        C170   1.472       .  S
C166        C390   1.474       .  S
N167        N168   1.323       .  A
N167        C171   1.346       .  A
N167       Cu175   2.076       .  S
N168        C169   1.347       .  A
N168       Cu174   2.083       .  S
C169        C170   1.385       .  A
C169        H172   1.082       .  S
C170        C171   1.383       .  A
C171        H173   1.082       .  S
Cu174       N177   2.083       .  S
Cu175       N185   2.076       .  S
Cu176       N178   2.071       .  S
Cu176       N184   2.072       .  S
N177        N178   1.323       .  A
N177        C181   1.347       .  A
N178        C179   1.345       .  A
C179        C180   1.382       .  A
C179        H182   1.082       .  S
C180        C181   1.384       .  A
C181        H183   1.082       .  S
N184        N185   1.323       .  A
N184        C188   1.345       .  A
N185        C186   1.345       .  A
C186        C187   1.383       .  A
C186        H189   1.082       .  S
C187        C685   1.478       .  S
C187        C188   1.383       .  A
C188        H190   1.082       .  S
N191        N192   1.323       .  A
N191        C195   1.343       .  A
N191       Cu199   2.063       .  S
N192        C193   1.346       .  A
N192       Cu198   2.082       .  S
C193        C194   1.385       .  A
C193        H196   1.082       .  S
C194        C195   1.379       .  A
C195        H197   1.082       .  S
Cu198       N201   2.083       .  S
Cu199       N209   2.064       .  S
Cu200       N202   2.067       .  S
Cu200       N208   2.067       .  S
N201        N202   1.323       .  A
N201        C205   1.347       .  A
N202        C203   1.344       .  A
C203        C204   1.380       .  A
C203        H206   1.082       .  S
C204        C205   1.385       .  A
C205        H207   1.082       .  S
N208        N209   1.321       .  A
N208        C212   1.343       .  A
N209        C210   1.343       .  A
C210        C211   1.384       .  A
C210        H213   1.082       .  S
C211        C676   1.479       .  S
C211        C212   1.384       .  A
C212        H214   1.082       .  S
O215       Cu223   2.023       .  S
O215        C225   1.280       .  A
O216       Cu223   2.010       .  S
O216        C226   1.277       .  A
O217       Cu223   2.003       .  S
O217        C227   1.275       .  A
O218       Cu223   2.015       .  S
O218        C228   1.278       .  A
O219       Cu224   2.013       .  S
O219        C228   1.278       .  A
O220       Cu224   2.025       .  S
O220        C227   1.280       .  A
O221       Cu224   2.014       .  S
O221        C226   1.278       .  A
O222       Cu224   2.004       .  S
O222        C225   1.276       .  A
Cu223      Cu224   2.376       .  S
C225        C342   1.470       .  S
C226        C462   1.468       .  S
C227        C438   1.470       .  S
C228        C366   1.471       .  S
O229       Cu237   2.009   1_556  S
O229        C239   1.277       .  A
O230       Cu237   2.022       .  S
O230        C240   1.280   1_565  A
O231       Cu237   2.022       .  S
O231        C241   1.279   1_565  A
O232       Cu237   2.009   1_556  S
O232        C242   1.276       .  A
O233       Cu238   2.024       .  S
O233        C242   1.280   1_545  A
O234       Cu238   2.012   1_554  S
O234        C241   1.277       .  A
O235       Cu238   2.011   1_554  S
O235        C240   1.277       .  A
O236       Cu238   2.020       .  S
O236        C239   1.279   1_545  A
Cu237      Cu238   2.375   1_564  S
C239        C256   1.471       .  S
C240        C332   1.472       .  S
C241        C318   1.473       .  S
C242        C270   1.472       .  S
N243        N244   1.323       .  A
N243        C247   1.344       .  A
N243       Cu251   2.063       .  S
N244        C245   1.348       .  A
N244       Cu250   2.091       .  S
C245        C246   1.387       .  A
C245        H248   1.082       .  S
C246        C247   1.379       .  A
C247        H249   1.082       .  S
Cu250       N253   2.091       .  S
Cu251       N261   2.064   1_565  S
Cu252       N254   2.072   1_545  S
Cu252       N260   2.071       .  S
N253        N254   1.324       .  A
N253        C257   1.348       .  A
N254        C255   1.345   1_565  A
C255        C256   1.381   1_545  A
C255        H258   1.082       .  S
C256        C257   1.386       .  A
C257        H259   1.082       .  S
N260        N261   1.320       .  A
N260        C264   1.345       .  A
N261        C262   1.343       .  A
C262        C263   1.385       .  A
C262        H265   1.081       .  S
C263        C661   1.483       .  S
C263        C264   1.386       .  A
C264        H266   1.082       .  S
N267        N268   1.323       .  A
N267        C271   1.345   1_565  A
N267       Cu275   2.066   1_565  S
N268        C269   1.349       .  A
N268       Cu274   2.097       .  S
C269        C270   1.388       .  A
C269        H272   1.082       .  S
C270        C271   1.380   1_565  A
C271        H273   1.082       .  S
Cu274       N277   2.097       .  S
Cu275       N285   2.066       .  S
Cu276       N278   2.070       .  S
Cu276       N284   2.070   1_565  S
N277        N278   1.324       .  A
N277        C281   1.349       .  A
N278        C279   1.345       .  A
C279        C280   1.381       .  A
C279        H282   1.082       .  S
C280        C281   1.388       .  A
C281        H283   1.082       .  S
N284        N285   1.321       .  A
N284        C288   1.345       .  A
N285        C286   1.343       .  A
C286        C287   1.384       .  A
C286        H289   1.081       .  S
C287        C649   1.482       .  S
C287        C288   1.385       .  A
C288        H290   1.082       .  S
O291       Cu299   2.023       .  S
O291        C301   1.280       .  A
O292       Cu299   2.012       .  S
O292        C302   1.277       .  A
O293       Cu299   2.011       .  S
O293        C303   1.277       .  A
O294       Cu299   2.023       .  S
O294        C304   1.279       .  A
O295       Cu300   2.001       .  S
O295        C304   1.276       .  A
O296       Cu300   2.015       .  S
O296        C303   1.278       .  A
O297       Cu300   2.020       .  S
O297        C302   1.279       .  A
O298       Cu300   2.009       .  S
O298        C301   1.276       .  A
Cu299      Cu300   2.376       .  S
C301        C380   1.472       .  S
C302        C414   1.472       .  S
C303        C486   1.469       .  S
C304        C308   1.469       .  S
N305        N306   1.322       .  A
N305        C309   1.345       .  A
N305       Cu313   2.065       .  S
N306        C307   1.346       .  A
N306       Cu312   2.086       .  S
C307        C308   1.385       .  A
C307        H310   1.082       .  S
C308        C309   1.381       .  A
C309        H311   1.082       .  S
Cu312       N315   2.086       .  S
Cu313       N323   2.065   1_545  S
Cu314       N316   2.078   1_565  S
Cu314       N322   2.078       .  S
N315        N316   1.323       .  A
N315        C319   1.347       .  A
N316        C317   1.346   1_545  A
C317        C318   1.383   1_565  A
C317        H320   1.082       .  S
C318        C319   1.385       .  A
C319        H321   1.082       .  S
N322        N323   1.322       .  A
N322        C326   1.346       .  A
N323        C324   1.343       .  A
C324        C325   1.382       .  A
C324        H327   1.082       .  S
C325        C637   1.478       .  S
C325        C326   1.385       .  A
C326        H328   1.082       .  S
N329        N330   1.323       .  A
N329        C333   1.344   1_545  A
N329       Cu337   2.069   1_545  S
N330        C331   1.349       .  A
N330       Cu336   2.093       .  S
C331        C332   1.387       .  A
C331        H334   1.082       .  S
C332        C333   1.380   1_545  A
C333        H335   1.082       .  S
Cu336       N339   2.093       .  S
Cu337       N347   2.069       .  S
Cu338       N340   2.068       .  S
Cu338       N346   2.069   1_545  S
N339        N340   1.324       .  A
N339        C343   1.348       .  A
N340        C341   1.345       .  A
C341        C342   1.380       .  A
C341        H344   1.082       .  S
C342        C343   1.386       .  A
C343        H345   1.082       .  S
N346        N347   1.321       .  A
N346        C350   1.344       .  A
N347        C348   1.344       .  A
C348        C349   1.384       .  A
C348        H351   1.082       .  S
C349        C625   1.482       .  S
C349        C350   1.385       .  A
C350        H352   1.082       .  S
N353        N354   1.322       .  A
N353        C357   1.344       .  A
N353       Cu361   2.065       .  S
N354        C355   1.346       .  A
N354       Cu360   2.081       .  S
C355        C356   1.384       .  A
C355        H358   1.082       .  S
C356        C357   1.380       .  A
C357        H359   1.082       .  S
Cu360       N363   2.081       .  S
Cu361       N371   2.066       .  S
Cu362       N364   2.076       .  S
Cu362       N370   2.076       .  S
N363        N364   1.323       .  A
N363        C367   1.347       .  A
N364        C365   1.345       .  A
C365        C366   1.382       .  A
C365        H368   1.082       .  S
C366        C367   1.384       .  A
C367        H369   1.082       .  S
N370        N371   1.322       .  A
N370        C374   1.346       .  A
N371        C372   1.343       .  A
C372        C373   1.380       .  A
C372        H375   1.082       .  S
C373        C613   1.475       .  S
C373        C374   1.384       .  A
C374        H376   1.082       .  S
N377        N378   1.323       .  A
N377        C381   1.344       .  A
N377       Cu385   2.065       .  S
N378        C379   1.349       .  A
N378       Cu384   2.097       .  S
C379        C380   1.388       .  A
C379        H382   1.082       .  S
C380        C381   1.380       .  A
C381        H383   1.082       .  S
Cu384       N387   2.097       .  S
Cu385       N395   2.066       .  S
Cu386       N388   2.075       .  S
Cu386       N394   2.075       .  S
N387        N388   1.324       .  A
N387        C391   1.349       .  A
N388        C389   1.346       .  A
C389        C390   1.382       .  A
C389        H392   1.082       .  S
C390        C391   1.387       .  A
C391        H393   1.082       .  S
N394        N395   1.321       .  A
N394        C398   1.345       .  A
N395        C396   1.344       .  A
C396        C397   1.383       .  A
C396        H399   1.082       .  S
C397        C601   1.478       .  S
C397        C398   1.384       .  A
C398        H400   1.082       .  S
N401        N402   1.323       .  A
N401        C405   1.345   1_545  A
N401       Cu409   2.071   1_545  S
N402        C403   1.348       .  A
N402       Cu408   2.088       .  S
C403        C404   1.385       .  A
C403        H406   1.082       .  S
C404        C405   1.381   1_545  A
C405        H407   1.082       .  S
Cu408       N411   2.088       .  S
Cu409       N419   2.072       .  S
Cu410       N412   2.074       .  S
Cu410       N418   2.075   1_545  S
N411        N412   1.323       .  A
N411        C415   1.348       .  A
N412        C413   1.345       .  A
C413        C414   1.381       .  A
C413        H416   1.082       .  S
C414        C415   1.386       .  A
C415        H417   1.082       .  S
N418        N419   1.321       .  A
N418        C422   1.345       .  A
N419        C420   1.345       .  A
C420        C421   1.386       .  A
C420        H423   1.081       .  S
C421        C592   1.486       .  S
C421        C422   1.386       .  A
C422        H424   1.082       .  S
N425        N426   1.324       .  A
N425        C429   1.343   1_545  A
N425       Cu433   2.065   1_545  S
N426        C427   1.349       .  A
N426       Cu432   2.097       .  S
C427        C428   1.387       .  A
C427        H430   1.082       .  S
C428        C429   1.379   1_545  A
C429        H431   1.082       .  S
Cu432       N435   2.098       .  S
Cu433       N443   2.065       .  S
Cu434       N436   2.063       .  S
Cu434       N442   2.063   1_545  S
N435        N436   1.323       .  A
N435        C439   1.349       .  A
N436        C437   1.343       .  A
C437        C438   1.378       .  A
C437        H440   1.082       .  S
C438        C439   1.388       .  A
C439        H441   1.082       .  S
N442        N443   1.320       .  A
N442        C446   1.343       .  A
N443        C444   1.344       .  A
C444        C445   1.385       .  A
C444        H447   1.082       .  S
C445        C580   1.481       .  S
C445        C446   1.384       .  A
C446        H448   1.082       .  S
N449        N450   1.323       .  A
N449        C453   1.343       .  A
N449       Cu457   2.068       .  S
N450        C451   1.348       .  A
N450       Cu456   2.085       .  S
C451        C452   1.386       .  A
C451        H454   1.082       .  S
C452        C453   1.380       .  A
C453        H455   1.082       .  S
Cu456       N459   2.086       .  S
Cu457       N467   2.069       .  S
Cu458       N460   2.071       .  S
Cu458       N466   2.071       .  S
N459        N460   1.324       .  A
N459        C463   1.347       .  A
N460        C461   1.345       .  A
C461        C462   1.381       .  A
C461        H464   1.082       .  S
C462        C463   1.384       .  A
C463        H465   1.082       .  S
N466        N467   1.321       .  A
N466        C470   1.344       .  A
N467        C468   1.344       .  A
C468        C469   1.385       .  A
C468        H471   1.082       .  S
C469        C565   1.483       .  S
C469        C470   1.385       .  A
C470        H472   1.082       .  S
N473        N474   1.323       .  A
N473        C477   1.346       .  A
N473       Cu481   2.072       .  S
N474        C475   1.348       .  A
N474       Cu480   2.089       .  S
C475        C476   1.386       .  A
C475        H478   1.082       .  S
C476        C477   1.382       .  A
C477        H479   1.082       .  S
Cu480       N483   2.089       .  S
Cu481       N491   2.072       .  S
Cu482       N484   2.069       .  S
Cu482       N490   2.069       .  S
N483        N484   1.323       .  A
N483        C487   1.348       .  A
N484        C485   1.344       .  A
C485        C486   1.380       .  A
C485        H488   1.082       .  S
C486        C487   1.385       .  A
C487        H489   1.082       .  S
N490        N491   1.321       .  A
N490        C494   1.345       .  A
N491        C492   1.343       .  A
C492        C493   1.384       .  A
C492        H495   1.082       .  S
C493        C553   1.481       .  S
C493        C494   1.384       .  A
C494        H496   1.082       .  S
O497       Cu505   2.001       .  S
O497        C507   1.276       .  A
O498       Cu505   2.000   1_455  S
O498        C508   1.276       .  A
O499       Cu505   2.007   1_455  S
O499        C509   1.278       .  A
O500       Cu505   2.007       .  S
O500        C510   1.278       .  A
O501       Cu506   2.008       .  S
O501        C510   1.279       .  A
O502       Cu506   2.008   1_455  S
O502        C509   1.279       .  A
O503       Cu506   2.011   1_455  S
O503        C508   1.278       .  A
O504       Cu506   2.012       .  S
O504        C507   1.278       .  A
Cu505      Cu506   2.370       .  S
C507        C616   1.473       .  S
C508        C640   1.470       .  S
C509        C604   1.492       .  S
C510        C628   1.488       .  S
O511       Cu519   1.997       .  S
O511        C521   1.277       .  A
O512       Cu519   2.001       .  S
O512        C522   1.277       .  A
O513       Cu519   2.013       .  S
O513        C523   1.279       .  A
O514       Cu519   2.012       .  S
O514        C524   1.279       .  A
O515       Cu520   2.006       .  S
O515        C524   1.277       .  A
O516       Cu520   2.009       .  S
O516        C523   1.277       .  A
O517       Cu520   2.011       .  S
O517        C522   1.278       .  A
O518       Cu520   2.011       .  S
O518        C521   1.278       .  A
Cu519      Cu520   2.368       .  S
C521        C556   1.486       .  S
C522        C577   1.486       .  S
C523        C589   1.489       .  S
C524        C568   1.488       .  S
O525       Cu533   2.011       .  S
O525        C535   1.278       .  A
O526       Cu533   2.010       .  S
O526        C536   1.278       .  A
O527       Cu533   2.009       .  S
O527        C537   1.278       .  A
O528       Cu533   2.012       .  S
O528        C538   1.278       .  A
O529       Cu534   2.005       .  S
O529        C538   1.278       .  A
O530       Cu534   2.003       .  S
O530        C537   1.277       .  A
O531       Cu534   2.008       .  S
O531        C536   1.278       .  A
O532       Cu534   2.011       .  S
O532        C535   1.279       .  A
Cu533      Cu534   2.369       .  S
C535        C700   1.487       .  S
C536        C721   1.486       .  S
C537        C712   1.482       .  S
C538        C736   1.488       .  S
O539       Cu547   2.000       .  S
O539        C549   1.278       .  A
O540       Cu547   1.997   1_455  S
O540        C550   1.277       .  A
O541       Cu547   2.010       .  S
O541        C551   1.278       .  A
O542       Cu547   2.008   1_455  S
O542        C552   1.277       .  A
O543       Cu548   2.000   1_455  S
O543        C552   1.275       .  A
O544       Cu548   2.003       .  S
O544        C551   1.277       .  A
O545       Cu548   2.009   1_455  S
O545        C550   1.278       .  A
O546       Cu548   2.008       .  S
O546        C549   1.278       .  A
Cu547      Cu548   2.374       .  S
C549        C652   1.483       .  S
C550        C673   1.483       .  S
C551        C688   1.473       .  S
C552        C664   1.465       .  S
C553        C554   1.404       .  A
C553        C558   1.411       .  A
C554        C555   1.402       .  A
C554        H559   1.085       .  S
C555        C556   1.416       .  A
C555        C562   1.444       .  S
C556        C557   1.406       .  A
C557        C558   1.397       .  A
C557        H560   1.085       .  S
C558        C561   1.444       .  S
C561        N563   1.157       .  T
C562        N564   1.157       .  T
C565        C566   1.403       .  A
C565        C570   1.413       .  A
C566        C567   1.400       .  A
C566        H571   1.085       .  S
C567        C568   1.417       .  A
C567        C574   1.444       .  S
C568        C569   1.406       .  A
C569        C570   1.402       .  A
C569        H572   1.085       .  S
C570        C573   1.444       .  S
C573        N575   1.157       .  T
C574        N576   1.157       .  T
C577        C578   1.407       .  A
C577        C582   1.415       .  A
C578        C579   1.399       .  A
C578        H583   1.085       .  S
C579        C580   1.412       .  A
C579        C586   1.444       .  S
C580        C581   1.403       .  A
C581        C582   1.400       .  A
C581        H584   1.085       .  S
C582        C585   1.444       .  S
C585        N587   1.157       .  T
C586        N588   1.157       .  T
C589        C590   1.406       .  A
C589        C594   1.416       .  A
C590        C591   1.401       .  A
C590        H595   1.085       .  S
C591        C592   1.413       .  A
C591        C598   1.444       .  S
C592        C593   1.404       .  A
C593        C594   1.402       .  A
C593        H596   1.085       .  S
C594        C597   1.444       .  S
C597        N599   1.157       .  T
C598        N600   1.157       .  T
C601        C602   1.400       .  A
C601        C606   1.410       .  A
C602        C603   1.400       .  A
C602        H607   1.085       .  S
C603        C604   1.419       .  A
C603        C610   1.444       .  S
C604        C605   1.409       .  A
C605        C606   1.401       .  A
C605        H608   1.084       .  S
C606        C609   1.444       .  S
C609        N611   1.157       .  T
C610        N612   1.157       .  T
C613        C614   1.403       .  A
C613        C618   1.410       .  A
C614        C615   1.400       .  A
C614        H619   1.085       .  S
C615        C616   1.410       .  A
C615        C622   1.444       .  S
C616        C617   1.403       .  A
C617        C618   1.400       .  A
C617        H620   1.085       .  S
C618        C621   1.444       .  S
C621        N623   1.157       .  T
C622        N624   1.157       .  T
C625        C626   1.403       .  A
C625        C630   1.412       .  A
C626        C627   1.400       .  A
C626        H631   1.085       .  S
C627        C628   1.416       .  A
C627        C634   1.444       .  S
C628        C629   1.407       .  A
C629        C630   1.400       .  A
C629        H632   1.085       .  S
C630        C633   1.444       .  S
C633        N635   1.157       .  T
C634        N636   1.157       .  T
C637        C638   1.404       .  A
C637        C642   1.414       .  A
C638        C639   1.401       .  A
C638        H643   1.085       .  S
C639        C640   1.409       .  A
C639        C646   1.444       .  S
C640        C641   1.401       .  A
C641        C642   1.399       .  A
C641        H644   1.085       .  S
C642        C645   1.444       .  S
C645        N647   1.157       .  T
C646        N648   1.157       .  T
C649        C650   1.404       .  A
C649        C654   1.412       .  A
C650        C651   1.401       .  A
C650        H655   1.085       .  S
C651        C652   1.415       .  A
C651        C658   1.444       .  S
C652        C653   1.405       .  A
C653        C654   1.398       .  A
C653        H656   1.085       .  S
C654        C657   1.444       .  S
C657        N659   1.157       .  T
C658        N660   1.157       .  T
C661        C662   1.407       .  A
C661        C666   1.416       .  A
C662        C663   1.400       .  A
C662        H667   1.084       .  S
C663        C664   1.407       .  A
C663        C670   1.445       .  S
C664        C665   1.398       .  A
C665        C666   1.399       .  A
C665        H668   1.085       .  S
C666        C669   1.444       .  S
C669        N671   1.157       .  T
C670        N672   1.157       .  T
C673        C674   1.406       .  A
C673        C678   1.414       .  A
C674        C675   1.398       .  A
C674        H679   1.085       .  S
C675        C676   1.412       .  A
C675        C682   1.444       .  S
C676        C677   1.403       .  A
C677        C678   1.400       .  A
C677        H680   1.085       .  S
C678        C681   1.444       .  S
C681        N683   1.157       .  T
C682        N684   1.157       .  T
C685        C686   1.403       .  A
C685        C690   1.412       .  A
C686        C687   1.401       .  A
C686        H691   1.084       .  S
C687        C688   1.410       .  A
C687        C694   1.445       .  S
C688        C689   1.402       .  A
C689        C690   1.401       .  A
C689        H692   1.085       .  S
C690        C693   1.444       .  S
C693        N695   1.157       .  T
C694        N696   1.157       .  T
C697        C698   1.405       .  A
C697        C702   1.414       .  A
C698        C699   1.401       .  A
C698        H703   1.084       .  S
C699        C700   1.415       .  A
C699        C706   1.444       .  S
C700        C701   1.405       .  A
C701        C702   1.402       .  A
C701        H704   1.085       .  S
C702        C705   1.444       .  S
C705        N707   1.157       .  T
C706        N708   1.157       .  T
C709        C710   1.404       .  A
C709        C714   1.414       .  A
C710        C711   1.400       .  A
C710        H715   1.085       .  S
C711        C712   1.414       .  A
C711        C718   1.445       .  S
C712        C713   1.404       .  A
C713        C714   1.400       .  A
C713        H716   1.085       .  S
C714        C717   1.444       .  S
C717        N719   1.157       .  T
C718        N720   1.157       .  T
C721        C722   1.406       .  A
C721        C726   1.415       .  A
C722        C723   1.400       .  A
C722        H727   1.085       .  S
C723        C724   1.412       .  A
C723        C730   1.444       .  S
C724        C725   1.404       .  A
C725        C726   1.401       .  A
C725        H728   1.085       .  S
C726        C729   1.444       .  S
C729        N731   1.157       .  T
C730        N732   1.157       .  T
C733        C734   1.403       .  A
C733        C738   1.412       .  A
C734        C735   1.402       .  A
C734        H739   1.085       .  S
C735        C736   1.417       .  A
C735        C742   1.444       .  S
C736        C737   1.406       .  A
C737        C738   1.400       .  A
C737        H740   1.085       .  S
C738        C741   1.444       .  S
C741        N743   1.157       .  T
C742        N744   1.157       .  T
