geometry optimzed in LAMMPS
_audit_creation_date              2020-11-30 
_audit_creation_method            'lammps2cif' 
_symmetry_space_group_name_H-M    'P1' 
_symmetry_Int_Tables_number       1 
_symmetry_cell_setting            triclinic 
loop_ 
_symmetry_equiv_pos_as_xyz 
  x,y,z 
_cell_length_a                    45.55127497 
_cell_length_b                    45.55135713416058 
_cell_length_c                    45.58807921552689 
_cell_angle_alpha                 90.00311297802618 
_cell_angle_beta                  90.01413877872163 
_cell_angle_gamma                 90.0194112321247 
loop_ 
_atom_site_label 
_atom_site_type_symbol 
_atom_site_fract_x 
_atom_site_fract_y 
_atom_site_fract_z 
_atom_site_charge 
O1          O  0.59498086  0.67511052  0.65513730    -0.78000
C2          C  0.67774716  0.68502343  0.60044625     0.83100
O3          O  0.59059405  0.61617884  0.56597897    -0.79100
O4          O  0.68421631  0.58420559  0.59303702    -0.80600
O5          O  0.66383326  0.59234486  0.68416155    -0.80300
O6          O  0.61506352  0.65005978  0.69200972    -0.79000
Zn7        Zn  0.61810618  0.66154155  0.61943966     1.55700
O8          O  0.69888279  0.61218713  0.65635794    -0.80400
Cd9        Cd  0.62678582  0.61334473  0.66793303     1.59700
Cd10       Cd  0.61123141  0.59352168  0.60048822     1.59600
O11         O  0.59038768  0.58688437  0.67146548    -0.80400
O12         O  0.63245885  0.62256566  0.62596228    -1.90900
Cd13       Cd  0.67516859  0.62062461  0.61868333     1.59900
O14         O  0.57893883  0.57277824  0.62585207    -0.80300
O15         O  0.68960533  0.65962432  0.60074295    -0.79000
C16         C  0.58446484  0.64349291  0.56393105     0.83600
C17         C  0.59749617  0.66962889  0.68250776     0.83200
O18         O  0.65161427  0.68909303  0.60967932    -0.77900
C19         C  0.69082469  0.59603330  0.67762826     0.84000
O20         O  0.59237752  0.66197605  0.58338608    -0.78000
C21         C  0.57393727  0.57322074  0.65344792     0.84200
C22         C  0.66926917  0.56273717  0.58293975     0.84500
O23         O  0.64118907  0.56241046  0.58412100    -0.80400
O24         O  0.83662921  0.59591969  0.31687424    -0.78000
C25         C  0.89935108  0.67098041  0.31330322     0.83100
O26         O  0.92891873  0.58110863  0.37519433    -0.79100
O27         O  0.90150707  0.67401057  0.41253661    -0.80600
O28         O  0.81469369  0.65270930  0.40883563    -0.80300
O29         O  0.80324112  0.60728442  0.35074362    -0.79000
Zn30       Zn  0.87495452  0.61177770  0.33315312     1.55700
O31         O  0.83782032  0.68845350  0.38472611    -0.80400
Cd32       Cd  0.82943034  0.61629646  0.38610193     1.59700
Cd33       Cd  0.89658921  0.60116807  0.40039811     1.59600
O34         O  0.82719612  0.57881505  0.41147172    -0.80400
O35         O  0.87001163  0.62329445  0.37322908    -1.90900
Cd36       Cd  0.87633904  0.66621152  0.37589601     1.59900
O37         O  0.87366220  0.56789404  0.42242368    -0.80300
O38         O  0.89630051  0.68273492  0.33851129    -0.79000
C39         C  0.92861260  0.57478521  0.34790714     0.83600
C40         C  0.81004976  0.59657871  0.32586841     0.83200
O41         O  0.89019807  0.64505949  0.30812313    -0.77900
C42         C  0.81912885  0.67987337  0.40361090     0.84000
O43         O  0.90793155  0.58273194  0.33080997    -0.78000
C44         C  0.84621031  0.56237511  0.42369782     0.84200
C45         C  0.91365732  0.65845506  0.43237561     0.84500
O46         O  0.91428796  0.63041532  0.43102897    -0.80400
O47         O  0.90907007  0.43800824  0.15293962    -0.78000
C48         C  0.84003323  0.43791322  0.07926589     0.83100
O49         O  0.82447897  0.37874874  0.17577661    -0.79100
O50         O  0.83374199  0.33768230  0.08617194    -0.80600
O51         O  0.93208387  0.35442065  0.08638242    -0.80300
O52         O  0.94311532  0.40593267  0.13872790    -0.79000
Zn53       Zn  0.87148489  0.42159169  0.13476284     1.55700
O54         O  0.89431913  0.36158127  0.05620933    -0.80400
Cd55       Cd  0.91830130  0.37082548  0.12584497     1.59700
Cd56       Cd  0.85628404  0.35424145  0.15416131     1.59600
O57         O  0.92743497  0.34145126  0.15856052    -0.80400
O58         O  0.87635374  0.38063827  0.12516068    -1.90900
Cd59       Cd  0.86091472  0.37387861  0.08516744     1.59900
O60         O  0.88639070  0.33765788  0.18467970    -0.80300
O61         O  0.83771827  0.41100794  0.07159302    -0.79000
C62         C  0.82089160  0.40651678  0.17650390     0.83600
C63         C  0.93572301  0.42923866  0.15218472     0.83200
O64         O  0.85680669  0.44589215  0.10022706    -0.77900
C65         C  0.92048569  0.35264506  0.06103355     0.84000
O66         O  0.83789736  0.42424664  0.16313381    -0.78000
C67         C  0.91389862  0.33323965  0.18157099     0.84200
C68         C  0.82789520  0.31786413  0.10503142     0.84500
O69         O  0.83608148  0.31958378  0.13177827    -0.80400
C70         C  0.74198512  0.56633398  0.00311673     0.03700
C71         C  0.76188112  0.55042599  0.02096102    -0.12500
C72         C  0.76281774  0.51953024  0.01988902     0.01200
C73         C  0.74393052  0.50479658  0.00068096    -0.11000
C74         C  0.72411279  0.51993291  0.98286886     0.03700
C75         C  0.72274239  0.55067861  0.98442696    -0.10400
H76         H  0.77659126  0.56204859  0.03556917     0.09300
H77         H  0.74493893  0.48105388  0.99915435     0.06800
H78         H  0.70706050  0.56227806  0.97086095     0.06600
C79         C  0.05953972  0.49704704  0.25878336     0.03700
C80         C  0.04417264  0.48482908  0.23485195    -0.12500
C81         C  0.01339499  0.48632705  0.23352252     0.01200
C82         C  0.99795074  0.49952655  0.25651003    -0.11000
C83         C  0.01280400  0.51167594  0.28039983     0.03700
C84         C  0.04352597  0.51056304  0.28153496    -0.10400
H85         H  0.05608462  0.47515065  0.21671915     0.09300
H86         H  0.97417895  0.50065036  0.25570844     0.06800
H87         H  0.05488562  0.52053486  0.29989291     0.06600
O88         O  0.60682003  0.31166886  0.84013326    -0.78000
C89         C  0.68666814  0.31138783  0.90255287     0.83100
O90         O  0.58918098  0.37308458  0.92397547    -0.79100
O91         O  0.68104498  0.41092489  0.90915658    -0.80600
O92         O  0.67540706  0.39351664  0.81084060    -0.80300
O93         O  0.62175647  0.34052109  0.80366324    -0.79000
Zn94       Zn  0.62779066  0.32835821  0.87622698     1.55700
O95         O  0.70616376  0.38729636  0.84824659    -0.80400
Cd96       Cd  0.63641011  0.37652342  0.82683108     1.59700
Cd97       Cd  0.61119880  0.39652984  0.89103999     1.59600
O98         O  0.60323612  0.40551646  0.81867590    -0.80400
O99         O  0.63815977  0.36877107  0.86946658    -1.90900
Cd100      Cd  0.67903587  0.37497052  0.88225769     1.59900
O101        O  0.58082290  0.41425478  0.86124658    -0.80300
O102        O  0.69523871  0.33803647  0.90271391    -0.79000
C103        C  0.58839387  0.34536621  0.92828185     0.83600
C104        C  0.60697359  0.31865302  0.81294852     0.83200
O105        O  0.66271931  0.30385039  0.88999853    -0.77900
C106        C  0.70086872  0.39597855  0.82223160     0.84000
O107        O  0.60116340  0.32736671  0.91111949    -0.78000
C108        C  0.58198808  0.41622835  0.83327214     0.84200
C109        C  0.66356546  0.43156407  0.91629115     0.84500
O110        O  0.63610245  0.43036479  0.91046483    -0.80400
O111        O  0.43894778  0.15794714  0.90559104    -0.78000
C112        C  0.44621143  0.07652397  0.85055130     0.83100
O113        O  0.37327116  0.16760359  0.82394085    -0.79100
O114        O  0.34828680  0.06923126  0.84359768    -0.80600
O115        O  0.35998477  0.08849346  0.94204268    -0.80300
O116        O  0.41568276  0.13893034  0.94409383    -0.79000
Zn117      Zn  0.42236333  0.13551556  0.87108337     1.55700
O118        O  0.36926197  0.05359207  0.90927210    -0.80400
Cd119      Cd  0.37798954  0.12552294  0.92279901     1.59700
Cd120      Cd  0.35321611  0.14192424  0.85667266     1.59600
O121        O  0.34949998  0.15978834  0.92877726    -0.80400
O122        O  0.38400490  0.12027027  0.88003435    -1.90900
Cd123      Cd  0.38220650  0.07739900  0.87242218     1.59900
O124        O  0.32996407  0.16982532  0.88487707    -0.80300
O125        O  0.42197924  0.06305399  0.85500351    -0.79000
C126        C  0.40049151  0.17327022  0.82028886     0.83600
C127        C  0.43510635  0.15579211  0.93320330     0.83200
O128        O  0.44949785  0.10343594  0.85746240    -0.77900
C129        C  0.35873625  0.06174279  0.93391938     0.84000
O130        O  0.42015584  0.16286274  0.83707908    -0.78000
C131        C  0.33224916  0.17447939  0.91244872     0.84200
C132        C  0.32691582  0.08395593  0.83305956     0.84500
O133        O  0.32481934  0.11172874  0.83663288    -0.80400
C134        C  0.50820783  0.25583585  0.05899160     0.03700
C135        C  0.52474977  0.27813488  0.04520555    -0.12500
C136        C  0.52585205  0.27983034  0.01447431     0.01200
C137        C  0.51098494  0.25905897  0.99759374    -0.11000
C138        C  0.49396909  0.23708754  0.01066521     0.03700
C139        C  0.49275792  0.23545953  0.04147297    -0.10400
H140        H  0.53649154  0.29418163  0.05823929     0.09300
H141        H  0.51323069  0.25979051  0.97393431     0.06800
H142        H  0.47976937  0.21843205  0.05181942     0.06600
C143        C  0.49135104  0.25429856  0.69403201     0.03700
C144        C  0.46809958  0.24212743  0.71034547    -0.12500
C145        C  0.46880386  0.24195369  0.74110010     0.01200
C146        C  0.49282499  0.25460949  0.75566463    -0.11000
C147        C  0.51631464  0.26705483  0.73997097     0.03700
C148        C  0.51532560  0.26685928  0.70907914    -0.10400
H149        H  0.44940172  0.23259723  0.69915970     0.09300
H150        H  0.49357848  0.25406735  0.77940781     0.06800
H151        H  0.53374671  0.27535225  0.69670185     0.06600
C152        C  0.57180687  0.00057658  0.75078580     0.03700
C153        C  0.55536244  0.98676626  0.72849329    -0.12500
C154        C  0.52451552  0.98719564  0.72884409     0.01200
C155        C  0.51007853  0.00121616  0.75212001    -0.11000
C156        C  0.52593449  0.01528025  0.77439805     0.03700
C157        C  0.55673272  0.01547669  0.77335124    -0.10400
H158        H  0.56658867  0.97571568  0.71072418     0.09300
H159        H  0.48629165  0.00138649  0.75286472     0.06800
H160        H  0.56878806  0.02729655  0.79006506     0.06600
C161        C  0.92860668  0.99322073  0.24941538     0.03700
C162        C  0.94428548  0.98129743  0.27328036    -0.12500
C163        C  0.97522956  0.98113366  0.27329777     0.01200
C164        C  0.99023870  0.99209167  0.24874259    -0.11000
C165        C  0.97515745  0.00420666  0.22481798     0.03700
C166        C  0.94427428  0.00432715  0.22516437    -0.10400
H167        H  0.93244499  0.97304607  0.29217169     0.09300
H168        H  0.01400192  0.99163281  0.24843809     0.06800
H169        H  0.93237009  0.01311863  0.20657898     0.06600
C170        C  0.24906949  0.30349792  0.99907681     0.03700
C171        C  0.26486771  0.28598550  0.97911648    -0.12500
C172        C  0.26409839  0.25530205  0.98107534     0.01200
C173        C  0.24728350  0.24188970  0.00298897    -0.11000
C174        C  0.23123425  0.25882689  0.02298630     0.03700
C175        C  0.23194084  0.28962685  0.02088924    -0.10400
H176        H  0.27756063  0.29614171  0.96176831     0.09300
H177        H  0.24667757  0.21813661  0.00450157     0.06800
H178        H  0.21943938  0.30267107  0.03633420     0.06600
C179        C  0.25524445  0.93828361  0.00904907     0.03700
C180        C  0.23067681  0.95370057  0.01955513    -0.12500
C181        C  0.23009531  0.98448731  0.01920103     0.01200
C182        C  0.25396956  0.99979945  0.00707557    -0.11000
C183        C  0.27855183  0.98489954  0.99586138     0.03700
C184        C  0.27917346  0.95407628  0.99745246    -0.10400
H185        H  0.21173511  0.94171939  0.02746970     0.09300
H186        H  0.25331199  0.02355652  0.00625979     0.06800
H187        H  0.29839491  0.94229687  0.98995598     0.06600
C188        C  0.29994738  0.99786246  0.25358066     0.03700
C189        C  0.28420161  0.97614712  0.26919471    -0.12500
C190        C  0.25339857  0.97641768  0.26963180     0.01200
C191        C  0.23817537  0.99785767  0.25386072    -0.11000
C192        C  0.25328695  0.01958111  0.23835730     0.03700
C193        C  0.28404632  0.02001338  0.23879353    -0.10400
H194        H  0.29572976  0.95906111  0.28102818     0.09300
H195        H  0.21436176  0.99774310  0.25379175     0.06800
H196        H  0.29537574  0.03746298  0.22734737     0.06600
C197        C  0.99306163  0.24928490  0.93620652     0.03700
C198        C  0.97934343  0.27283646  0.95089444    -0.12500
C199        C  0.97865724  0.27385036  0.98169289     0.01200
C200        C  0.99114540  0.25078293  0.99776397    -0.11000
C201        C  0.00479572  0.22715810  0.98372366     0.03700
C202        C  0.00578148  0.22652730  0.95292106    -0.10400
H203        H  0.96925750  0.29036572  0.93845446     0.09300
H204        H  0.99057030  0.25140150  0.02153434     0.06800
H205        H  0.01660498  0.20839600  0.94199592     0.06600
C206        C  0.00606405  0.25707814  0.31326634     0.03700
C207        C  0.98695792  0.27458123  0.29622653    -0.12500
C208        C  0.98759555  0.27306745  0.26546936     0.01200
C209        C  0.00750205  0.25413784  0.25172673    -0.11000
C210        C  0.02693987  0.23705870  0.26808836     0.03700
C211        C  0.02609157  0.23828641  0.29880222    -0.10400
H212        H  0.97219053  0.28996673  0.30670314     0.09300
H213        H  0.00778770  0.25252940  0.22798570     0.06800
H214        H  0.04071275  0.22432783  0.31131216     0.06600
O215        O  0.08169908  0.05996610  0.14924103    -0.78000
C216        C  0.14578887  0.06142003  0.07408124     0.83100
O217        O  0.17259304  0.11816788  0.16899034    -0.79100
O218        O  0.15197407  0.15981418  0.07639334    -0.80600
O219        O  0.05591827  0.15023572  0.09151859    -0.80300
O220        O  0.04771425  0.09390663  0.14084202    -0.79000
Zn221      Zn  0.11924399  0.07816722  0.13301902     1.55700
O222        O  0.08846182  0.13782539  0.05717204    -0.80400
Cd223      Cd  0.07295268  0.12991535  0.12891330     1.59700
Cd224      Cd  0.14150111  0.14497643  0.14781693     1.59600
O225        O  0.07032769  0.15679875  0.16511151    -0.80400
O226        O  0.11479437  0.11919016  0.12328244    -1.90900
Cd227      Cd  0.12436498  0.12464887  0.08128099     1.59900
O228        O  0.11618952  0.16604941  0.18000713    -0.80300
O229        O  0.14393494  0.08748807  0.06406267    -0.79000
C230        C  0.17207197  0.09032486  0.17265139     0.83600
C231        C  0.05505044  0.06858859  0.15029160     0.83200
O232        O  0.13489551  0.05463512  0.09892529    -0.77900
C233        C  0.06455965  0.15017328  0.06483731     0.84000
O234        O  0.15177801  0.07440342  0.16186859    -0.78000
C235        C  0.08837393  0.16805385  0.18331323     0.84200
C236        C  0.16404300  0.17864393  0.09311602     0.84500
O237        O  0.16262675  0.17663731  0.12110173    -0.80400
O238        O  0.44778885  0.84501936  0.58965086    -0.78000
C239        C  0.44758363  0.92773059  0.64719001     0.83100
O240        O  0.38590202  0.82933164  0.67195570    -0.79100
O241        O  0.34939218  0.92289780  0.65350483    -0.80600
O242        O  0.36523329  0.91099813  0.55472430    -0.80300
O243        O  0.42082858  0.85963892  0.55144686    -0.79000
Zn244      Zn  0.43063978  0.86728177  0.62445922     1.55700
O245        O  0.37117490  0.94377371  0.59031732    -0.80400
Cd246      Cd  0.38343033  0.87341681  0.57319253     1.59700
Cd247      Cd  0.36277629  0.85173377  0.63909356     1.59600
O248        O  0.35433990  0.83949819  0.56686029    -0.80400
O249        O  0.39053082  0.87753450  0.61603763    -1.90900
Cd250      Cd  0.38451717  0.91932552  0.62589829     1.59900
O251        O  0.34190263  0.82193687  0.61078628    -0.80300
O252        O  0.42131458  0.93719488  0.64538594    -0.79000
C253        C  0.41345837  0.82889922  0.67713697     0.83600
C254        C  0.44214554  0.84506493  0.56217691     0.83200
O255        O  0.45476608  0.90266007  0.63689235    -0.77900
C256        C  0.36212865  0.93695380  0.56478940     0.84000
O257        O  0.43173846  0.84183764  0.66042411    -0.78000
C258        C  0.34070118  0.82094813  0.58276369     0.84200
C259        C  0.32993406  0.90556257  0.66357474     0.84500
O260        O  0.33111503  0.87780316  0.65974949    -0.80400
O261        O  0.07975116  0.93431139  0.35660688    -0.78000
C262        C  0.14274573  0.93491882  0.43474615     0.83100
O263        O  0.17018429  0.87925899  0.33727470    -0.79100
O264        O  0.15330989  0.83670370  0.42945021    -0.80600
O265        O  0.05574968  0.84687255  0.41866089    -0.80300
O266        O  0.04656795  0.90024650  0.36746651    -0.79000
Zn267      Zn  0.11751143  0.91840549  0.37526035     1.55700
O268        O  0.09008254  0.85738165  0.45176642    -0.80400
Cd269      Cd  0.07239434  0.86561142  0.38065245     1.59700
Cd270      Cd  0.13965816  0.85210871  0.35851045     1.59600
O271        O  0.06869264  0.83760749  0.34574164    -0.80400
O272        O  0.11399984  0.87719866  0.38464267    -1.90900
Cd273      Cd  0.12475156  0.87109273  0.42621512     1.59900
O274        O  0.11332439  0.83176065  0.32649015    -0.80300
O275        O  0.14327798  0.90836319  0.44344896    -0.79000
C276        C  0.17084186  0.90725683  0.33538581     0.83600
C277        C  0.05336667  0.92470181  0.35579972     0.83200
O278        O  0.13041805  0.94213219  0.41063823    -0.77900
C279        C  0.06529318  0.84641469  0.44497667     0.84000
O280        O  0.15150214  0.92331948  0.34766357    -0.78000
C281        C  0.08550400  0.82801345  0.32555661     0.84200
C282        C  0.16454512  0.81809716  0.41193839     0.84500
O283        O  0.16170956  0.82025085  0.38406915    -0.80400
C284        C  0.98832572  0.74495302  0.56860295     0.03700
C285        C  0.00386282  0.76738106  0.55391434    -0.12500
C286        C  0.00339791  0.76919484  0.52316204     0.01200
C287        C  0.98800158  0.74800261  0.50714987    -0.11000
C288        C  0.97277312  0.72546431  0.52123842     0.03700
C289        C  0.97294199  0.72383652  0.55194684    -0.10400
H290        H  0.01608556  0.78353611  0.56633479     0.09300
H291        H  0.98766412  0.74910644  0.48338088     0.06800
H292        H  0.96042169  0.70677003  0.56279285     0.06600
C293        C  0.25338089  0.05806432  0.49676626     0.03700
C294        C  0.22851131  0.04252679  0.48712289    -0.12500
C295        C  0.22829404  0.01172226  0.48665634     0.01200
C296        C  0.25331682  0.99642828  0.49623042    -0.11000
C297        C  0.27820840  0.01147802  0.50636377     0.03700
C298        C  0.27795465  0.04228982  0.50678297    -0.10400
H299        H  0.20925675  0.05446104  0.48000002     0.09300
H300        H  0.25325273  0.97264822  0.49623216     0.06800
H301        H  0.29681667  0.05394994  0.51535421     0.06600
C302        C  0.25046550  0.69091110  0.50129497     0.03700
C303        C  0.26871224  0.70779752  0.51983241    -0.12500
C304        C  0.26927631  0.73854854  0.51746372     0.01200
C305        C  0.25137666  0.75243337  0.49671882    -0.11000
C306        C  0.23315277  0.73613339  0.47820104     0.03700
C307        C  0.23261416  0.70541062  0.48052855    -0.10400
H308        H  0.28320357  0.69707185  0.53531874     0.09300
H309        H  0.25158055  0.77618389  0.49500617     0.06800
H310        H  0.21822639  0.69287410  0.46633149     0.06600
C311        C  0.00390530  0.74516443  0.19040407     0.03700
C312        C  0.02401417  0.76196096  0.20704631    -0.12500
C313        C  0.02184200  0.76278144  0.23779651     0.01200
C314        C  0.00003028  0.74631280  0.25181497    -0.11000
C315        C  0.97989039  0.72968486  0.23580226     0.03700
C316        C  0.98221372  0.72864808  0.20514956    -0.10400
H317        H  0.04036863  0.77532834  0.19612277     0.09300
H318        H  0.99826498  0.74703110  0.27553758     0.06800
H319        H  0.96680801  0.71539446  0.19282614     0.06600
C320        C  0.20088513  0.99222428  0.74732323     0.03700
C321        C  0.21637278  0.01330311  0.76404689    -0.12500
C322        C  0.24719115  0.01295118  0.76497269     0.01200
C323        C  0.26258867  0.99226716  0.74830140    -0.11000
C324        C  0.24760645  0.97148470  0.73146632     0.03700
C325        C  0.21692712  0.97105628  0.73145982    -0.10400
H326        H  0.20460310  0.02964688  0.77666577     0.09300
H327        H  0.28640059  0.99232864  0.74845226     0.06800
H328        H  0.20575363  0.95409495  0.71914306     0.06600
C329        C  0.75945599  0.18866071  0.00801146     0.03700
C330        C  0.77033807  0.20434453  0.03233022    -0.12500
C331        C  0.76940032  0.23512389  0.03282608     0.01200
C332        C  0.75735907  0.25016107  0.00878246    -0.11000
C333        C  0.74584944  0.23497501  0.98458647     0.03700
C334        C  0.74720424  0.20420756  0.98427661    -0.10400
H335        H  0.77910551  0.19269246  0.05108692     0.09300
H336        H  0.75697851  0.27393305  0.00887791     0.06800
H337        H  0.73921552  0.19235753  0.96527985     0.06600
C338        C  0.49511984  0.74104793  0.80830439     0.03700
C339        C  0.51542010  0.72472645  0.79150624    -0.12500
C340        C  0.51503351  0.72610742  0.76066575     0.01200
C341        C  0.49455775  0.74441415  0.74685241    -0.11000
C342        C  0.47414757  0.76054566  0.76302311     0.03700
C343        C  0.47447918  0.75903072  0.79377407    -0.10400
H344        H  0.53126492  0.71075242  0.80242487     0.09300
H345        H  0.49484438  0.74676550  0.72319592     0.06800
H346        H  0.45920625  0.77226894  0.80627748     0.06600
C347        C  0.50878789  0.74061914  0.43572769     0.03700
C348        C  0.49584904  0.76255592  0.45349610    -0.12500
C349        C  0.49782539  0.76124753  0.48431259     0.01200
C350        C  0.51380830  0.73831963  0.49704332    -0.11000
C351        C  0.52552361  0.71544409  0.48027717     0.03700
C352        C  0.52354778  0.71692459  0.44945006    -0.10400
H353        H  0.48425715  0.78062949  0.44334060     0.09300
H354        H  0.51718402  0.73806158  0.52055712     0.06800
H355        H  0.53283181  0.69946387  0.43626351     0.06600
C356        C  0.75130340  0.81156171  0.50086196     0.03700
C357        C  0.76407282  0.79432791  0.47848018    -0.12500
C358        C  0.76358292  0.76355021  0.48028888     0.01200
C359        C  0.74947393  0.75022181  0.50400529    -0.11000
C360        C  0.73771972  0.76671831  0.52693637     0.03700
C361        C  0.73815048  0.79745966  0.52512759    -0.10400
H362        H  0.77461176  0.80477591  0.45995651     0.09300
H363        H  0.74800272  0.72646984  0.50485116     0.06800
H364        H  0.72884158  0.81032432  0.54281724     0.06600
C365        C  0.44724881  0.49595782  0.74965878     0.03700
C366        C  0.46502807  0.47940986  0.76876914    -0.12500
C367        C  0.49549274  0.47833682  0.76464350     0.01200
C368        C  0.50813960  0.49375039  0.74133220    -0.11000
C369        C  0.49092685  0.51046432  0.72222209     0.03700
C370        C  0.46041986  0.51167096  0.72644583    -0.10400
H371        H  0.45513315  0.46657047  0.78615233     0.09300
H372        H  0.53175214  0.49308576  0.73829713     0.06800
H373        H  0.44700794  0.52462994  0.71169279     0.06600
C374        C  0.82279464  0.50151827  0.74822153     0.03700
C375        C  0.80545078  0.52258659  0.73351327    -0.12500
C376        C  0.77468624  0.52063223  0.73421063     0.01200
C377        C  0.76139912  0.49802059  0.75011960    -0.11000
C378        C  0.77810285  0.47665845  0.76433280     0.03700
C379        C  0.80877253  0.47885183  0.76402406    -0.10400
H380        H  0.81576959  0.53973902  0.72068125     0.09300
H381        H  0.73764837  0.49678371  0.75115659     0.06800
H382        H  0.82163285  0.46261423  0.77565944     0.06600
C383        C  0.75864578  0.43042161  0.50290371     0.03700
C384        C  0.73825491  0.44612051  0.52027753    -0.12500
C385        C  0.74005684  0.47686984  0.52262154     0.01200
C386        C  0.76213381  0.49190656  0.50744428    -0.11000
C387        C  0.78216067  0.47694857  0.48958296     0.03700
C388        C  0.78021401  0.44625364  0.48718433    -0.10400
H389        H  0.72107337  0.43455094  0.53193899     0.09300
H390        H  0.76328296  0.51563871  0.50902383     0.06800
H391        H  0.79591987  0.43470472  0.47357872     0.06600
C392        C  0.68734412  0.49543408  0.25005251     0.03700
C393        C  0.70214701  0.51959799  0.26239313    -0.12500
C394        C  0.73288845  0.52114977  0.26177855     0.01200
C395        C  0.74880976  0.49811790  0.24918152    -0.11000
C396        C  0.73450614  0.47423331  0.23631416     0.03700
C397        C  0.70372121  0.47306741  0.23634347    -0.10400
H398        H  0.68974745  0.53732021  0.27227600     0.09300
H399        H  0.77260609  0.49871020  0.24934661     0.06800
H400        H  0.69265936  0.45447748  0.22644923     0.06600
O401        O  0.11844658  0.33888789  0.69789978    -0.78000
C402        C  0.19680598  0.39277783  0.68710251     0.83100
O403        O  0.08054298  0.41220786  0.63740985    -0.79100
O404        O  0.18405193  0.41235960  0.60016592    -0.80600
O405        O  0.16501604  0.30297975  0.61744669    -0.80300
O406        O  0.10609002  0.30798628  0.66227019    -0.79000
Zn407      Zn  0.13299781  0.37512138  0.67677388     1.55700
O408        O  0.19711571  0.33736543  0.60387206    -0.80400
Cd409      Cd  0.12841962  0.32708603  0.62750047     1.59700
Cd410      Cd  0.11341073  0.39478040  0.61104093     1.59600
O411        O  0.10459202  0.32528886  0.58932976    -0.80400
O412        O  0.13863211  0.36832962  0.63559121    -1.90900
Cd413      Cd  0.18023975  0.37437472  0.62491630     1.59900
O414        O  0.09549316  0.37151125  0.57594448    -0.80300
O415        O  0.20443778  0.38390325  0.66173938    -0.79000
C416        C  0.07957679  0.41424499  0.66532620     0.83600
C417        C  0.10577709  0.31547502  0.68924200     0.83200
O418        O  0.17010208  0.39140089  0.69559419    -0.77900
C419        C  0.18871060  0.31059382  0.60472006     0.84000
O420        O  0.09931778  0.40290177  0.68160103    -0.78000
C421        C  0.09438407  0.34392240  0.57116101     0.84200
C422        C  0.16610126  0.43191251  0.59119048     0.84500
O423        O  0.13836757  0.42909473  0.59398463    -0.80400
O424        O  0.59094261  0.13758322  0.44648100    -0.78000
C425        C  0.64592786  0.06195591  0.42756950     0.83100
O426        O  0.65810277  0.17981828  0.37994155    -0.79100
O427        O  0.65579432  0.07705510  0.34064826    -0.80600
O428        O  0.54808749  0.09092661  0.36407325    -0.80300
O429        O  0.55367404  0.14488811  0.41582457    -0.79000
Zn430      Zn  0.62487797  0.12515303  0.42071901     1.55700
O431        O  0.58345027  0.06052782  0.34953300    -0.80400
Cd432      Cd  0.57078463  0.12813800  0.37683050     1.59700
Cd433      Cd  0.63685285  0.14765477  0.35401623     1.59600
O434        O  0.56379546  0.15619510  0.34194321    -0.80400
O435        O  0.61356772  0.12049782  0.38030044    -1.90900
Cd436      Cd  0.62041666  0.07911775  0.36852785     1.59900
O437        O  0.60794084  0.16683310  0.32345075    -0.80300
O438        O  0.63433693  0.05415303  0.40339737    -0.79000
C439        C  0.66255612  0.17945971  0.40767788     0.83600
C440        C  0.56483841  0.14634494  0.44149688     0.83200
O441        O  0.64449508  0.08849301  0.43645565    -0.77900
C442        C  0.55638676  0.06757342  0.35105572     0.84000
O443        O  0.65245035  0.15892557  0.42368723    -0.78000
C444        C  0.57986631  0.16809531  0.32232118     0.84200
C445        C  0.67316100  0.09565950  0.32910602     0.84500
O446        O  0.66927101  0.12336405  0.33160267    -0.80400
C447        C  0.49148793  0.24921542  0.56633482     0.03700
C448        C  0.50463032  0.22489190  0.55232673    -0.12500
C449        C  0.50445402  0.22250064  0.52160691     0.01200
C450        C  0.49136785  0.24472475  0.50492448    -0.11000
C451        C  0.47892336  0.26951606  0.51822412     0.03700
C452        C  0.47846896  0.27134195  0.54900998    -0.10400
H453        H  0.51496497  0.20784437  0.56528145     0.09300
H454        H  0.49111134  0.24275890  0.48122946     0.06800
H455        H  0.46796502  0.28994528  0.55940498     0.06600
O456        O  0.39442503  0.35770746  0.30938089    -0.78000
C457        C  0.31614931  0.40720457  0.32708960     0.83100
O458        O  0.42911640  0.42064805  0.38459509    -0.79100
O459        O  0.32339965  0.40928337  0.41534292    -0.80600
O460        O  0.35115672  0.30651409  0.39021152    -0.80300
O461        O  0.40265668  0.31935663  0.33854846    -0.79000
Zn462      Zn  0.38001716  0.38965741  0.33671119     1.55700
O463        O  0.31446297  0.33757060  0.39878808    -0.80400
Cd464      Cd  0.38569016  0.33342361  0.37823376     1.59700
Cd465      Cd  0.39489640  0.39880602  0.40580607     1.59600
O466        O  0.41572047  0.32843676  0.41186078    -0.80400
O467        O  0.37319135  0.37501852  0.37580065    -1.90900
Cd468      Cd  0.33087812  0.37728235  0.38464398     1.59900
O469        O  0.41272965  0.37047545  0.43714485    -0.80300
O470        O  0.30755368  0.39272568  0.34937529    -0.79000
C471        C  0.43197212  0.42654111  0.35737413     0.83600
C472        C  0.40375470  0.33163815  0.31341893     0.83200
O473        O  0.34327724  0.40887787  0.32020508    -0.77900
C474        C  0.32519897  0.31172514  0.39920606     0.84000
O475        O  0.41367132  0.41784365  0.33812250    -0.78000
C476        C  0.42122140  0.34387139  0.43455342     0.84200
C477        C  0.33865344  0.42930656  0.42753734     0.84500
O478        O  0.36666443  0.42950902  0.42564770    -0.80400
C479        C  0.55991117  0.49192232  0.25609717     0.03700
C480        C  0.54287383  0.50499231  0.23385547    -0.12500
C481        C  0.51214398  0.50592236  0.23594135     0.01200
C482        C  0.49848938  0.49423047  0.26078701    -0.11000
C483        C  0.51485588  0.48156960  0.28349635     0.03700
C484        C  0.54555838  0.48011764  0.28090991    -0.10400
H485        H  0.55345245  0.51481947  0.21504146     0.09300
H486        H  0.47477797  0.49515175  0.26256790     0.06800
H487        H  0.55821271  0.47001930  0.29829882     0.06600
C488        C  0.50098414  0.74016103  0.93571877     0.03700
C489        C  0.49124164  0.71588114  0.95216360    -0.12500
C490        C  0.49220091  0.71634503  0.98303873     0.01200
C491        C  0.50239519  0.74172448  0.99724761    -0.11000
C492        C  0.51166693  0.76637954  0.98129680     0.03700
C493        C  0.51134957  0.76526803  0.95047652    -0.10400
H494        H  0.48313742  0.69656609  0.94089154     0.09300
H495        H  0.50276063  0.74247761  0.02098111     0.06800
H496        H  0.51850443  0.78419235  0.93797144     0.06600
O497        O  0.36031410  0.55001525  0.09956003    -0.78000
C498        C  0.43326912  0.56564008  0.15672239     0.83100
O499        O  0.32033885  0.61986331  0.16888487    -0.79100
O500        O  0.42618092  0.65415128  0.16304090    -0.80600
O501        O  0.40620527  0.63113656  0.05767309    -0.80300
O502        O  0.35119723  0.58230740  0.06418657    -0.79000
Zn503      Zn  0.37094893  0.57527040  0.13459153     1.55700
O504        O  0.44055421  0.64114704  0.09076563    -0.80400
Cd505      Cd  0.36964017  0.61997676  0.08184980     1.59700
Cd506      Cd  0.35450498  0.64326258  0.14852254     1.59600
O507        O  0.34333614  0.65606029  0.07686262    -0.80400
O508        O  0.37868640  0.61552091  0.12393832    -1.90900
Cd509      Cd  0.42091150  0.62501667  0.12890806     1.59900
O510        O  0.33714596  0.67582303  0.12129466    -0.80300
O511        O  0.44255646  0.58870882  0.14394552    -0.79000
C512        C  0.31627988  0.59212539  0.17047184     0.83600
C513        C  0.35069424  0.55607503  0.07400894     0.83200
O514        O  0.40618142  0.55832223  0.15612097    -0.77900
C515        C  0.43147335  0.64109035  0.06425750     0.84000
O516        O  0.33435052  0.57393637  0.15927116    -0.78000
C517        C  0.33451702  0.67682060  0.09340578     0.84200
C518        C  0.40911969  0.66609325  0.18168080     0.84500
O519        O  0.38118683  0.66378988  0.18003337    -0.80400
C520        C  0.25057657  0.56297697  0.50636656     0.03700
C521        C  0.22974119  0.54865016  0.52432647    -0.12500
C522        C  0.22883574  0.51792511  0.52573675     0.01200
C523        C  0.24857037  0.50138456  0.50915931    -0.11000
C524        C  0.26937854  0.51495541  0.49111547     0.03700
C525        C  0.27069197  0.54579117  0.49007974    -0.10400
H526        H  0.21409022  0.56128897  0.53699218     0.09300
H527        H  0.24770707  0.47760866  0.51032287     0.06800
H528        H  0.28707100  0.55625790  0.47640576     0.06600
O529        O  0.54568125  0.91050316  0.13000815    -0.78000
C530        C  0.56515847  0.85387181  0.05562127     0.83100
O531        O  0.60930541  0.84295598  0.17556852    -0.79100
O532        O  0.65044647  0.84239365  0.07403383    -0.80600
O533        O  0.63207538  0.95066601  0.08790172    -0.80300
O534        O  0.57751173  0.94631796  0.13935686    -0.79000
Zn535      Zn  0.57035932  0.87518766  0.11926002     1.55700
O536        O  0.64658407  0.91456001  0.05834935    -0.80400
Cd537      Cd  0.61573337  0.92805697  0.12344120     1.59700
Cd538      Cd  0.63648769  0.86250280  0.14381408     1.59600
O539        O  0.64870455  0.93408696  0.15315779    -0.80400
O540        O  0.61117638  0.88559508  0.11574220    -1.90900
Cd541      Cd  0.62384626  0.87868385  0.07483970     1.59900
O542        O  0.66764794  0.89028235  0.16368042    -0.80300
O543        O  0.58926804  0.86614454  0.04850544    -0.79000
C544        C  0.58146248  0.83918087  0.17544399     0.83600
C545        C  0.55148894  0.93606325  0.13990760     0.83200
O546        O  0.55555778  0.85491874  0.08197627    -0.77900
C547        C  0.64680793  0.94151226  0.06597916     0.84000
O548        O  0.56554059  0.84893664  0.15455811    -0.78000
C549        C  0.66829890  0.91830730  0.16530531     0.84200
C550        C  0.66149936  0.82524735  0.09311027     0.84500
O551        O  0.65862595  0.82953376  0.12066075    -0.80400
C552        C  0.74383126  0.69452051  0.00737068     0.03700
C553        C  0.76213743  0.71035230  0.98792160    -0.12500
C554        C  0.76414146  0.74110303  0.98979717     0.01200
C555        C  0.74801142  0.75599444  0.01124610    -0.11000
C556        C  0.72936056  0.74086901  0.03030431     0.03700
C557        C  0.72682162  0.71025526  0.02794882    -0.10400
H558        H  0.77545567  0.69881748  0.97197215     0.09300
H559        H  0.74946114  0.77972415  0.01264626     0.06800
H560        H  0.71165938  0.69878616  0.04221420     0.06600
O561        O  0.92287939  0.13689360  0.55485825    -0.78000
C562        C  0.86447843  0.05826475  0.56731594     0.83100
O563        O  0.83910559  0.17036424  0.60985925    -0.79100
O564        O  0.85286659  0.06967019  0.65634555    -0.80600
O565        O  0.95709869  0.09643429  0.64124239    -0.80300
O566        O  0.94734144  0.15517900  0.59308651    -0.79000
Zn567      Zn  0.88622515  0.12121775  0.57535230     1.55700
O568        O  0.92529578  0.05950000  0.64549241    -0.80400
Cd569      Cd  0.93030599  0.13104214  0.62779920     1.59700
Cd570      Cd  0.85949552  0.14086477  0.63905295     1.59600
O571        O  0.92722251  0.15821488  0.66357737    -0.80400
O572        O  0.89040581  0.11757793  0.61728990    -1.90900
Cd573      Cd  0.88696753  0.07568990  0.62781000     1.59900
O574        O  0.87942796  0.16444076  0.67314031    -0.80300
O575        O  0.87320319  0.05085935  0.59278524    -0.79000
C576        C  0.84118609  0.17114477  0.58188275     0.83600
C577        C  0.94229821  0.15405894  0.56555615     0.83200
O578        O  0.86867304  0.08418999  0.55752934    -0.77900
C579        C  0.95095984  0.07013783  0.64886290     0.84000
O580        O  0.85758484  0.15320251  0.56822091    -0.78000
C581        C  0.90649937  0.16888185  0.67897736     0.84200
C582        C  0.83021767  0.08460794  0.66302418     0.84500
O583        O  0.82823662  0.11200096  0.65713108    -0.80400
C584        C  0.69978920  0.99653937  0.74611663     0.03700
C585        C  0.71575081  0.97617043  0.76329960    -0.12500
C586        C  0.74660150  0.97635546  0.76318873     0.01200
C587        C  0.76144361  0.99591732  0.74477948    -0.11000
C588        C  0.74616305  0.01626867  0.72770487     0.03700
C589        C  0.71542981  0.01701901  0.72884192    -0.10400
H590        H  0.70431800  0.96060694  0.77715920     0.09300
H591        H  0.78525091  0.99567779  0.74413739     0.06800
H592        H  0.70388620  0.03352198  0.71625508     0.06600
O593        O  0.87084969  0.94186036  0.90461563    -0.78000
C594        C  0.94529691  0.91693411  0.84857224     0.83100
O595        O  0.82255106  0.87988828  0.84042783    -0.79100
O596        O  0.91943662  0.83006533  0.83937938    -0.80600
O597        O  0.91495588  0.85675516  0.94695466    -0.80300
O598        O  0.86395416  0.91180942  0.94238179    -0.79000
Zn599      Zn  0.88181871  0.91548933  0.87071762     1.55700
O600        O  0.93899031  0.83670308  0.90937019    -0.80400
Cd601      Cd  0.87819824  0.87250067  0.92524058     1.59700
Cd602      Cd  0.85200669  0.85108900  0.86134982     1.59600
O603        O  0.84750716  0.84096595  0.93397013    -0.80400
O604        O  0.88319326  0.87490655  0.88212736    -1.90900
Cd605      Cd  0.92261509  0.85900782  0.87341722     1.59900
O606        O  0.83082240  0.82316451  0.89164865    -0.80300
O607        O  0.95088379  0.89119257  0.85807050    -0.79000
C608        C  0.82600969  0.90706908  0.83419860     0.83600
C609        C  0.86244172  0.93725187  0.93086979     0.83200
O610        O  0.91988595  0.92832116  0.85167106    -0.77900
C611        C  0.93434127  0.83934652  0.93682346     0.84000
O612        O  0.84847977  0.92128429  0.84290361    -0.78000
C613        C  0.83201989  0.82261208  0.91971383     0.84200
C614        C  0.89874221  0.81962972  0.82384956     0.84500
O615        O  0.87173338  0.82526080  0.82881251    -0.80400
O616        O  0.11956506  0.65898126  0.80874997    -0.78000
C617        C  0.19675000  0.60396528  0.82240408     0.83100
O618        O  0.08174191  0.58073254  0.86735768    -0.79100
O619        O  0.18431475  0.58911501  0.90888010    -0.80600
O620        O  0.15828997  0.69584637  0.89138664    -0.80300
O621        O  0.09854869  0.68272532  0.84597837    -0.79000
Zn622      Zn  0.13287328  0.62237243  0.83030698     1.55700
O623        O  0.19318594  0.66336385  0.90239097    -0.80400
Cd624      Cd  0.12362462  0.66842001  0.88087841     1.59700
Cd625      Cd  0.11275985  0.59949641  0.89535500     1.59600
O626        O  0.09881834  0.66793484  0.91847315    -0.80400
O627        O  0.13669333  0.62832867  0.87202674    -1.90900
Cd628      Cd  0.17836882  0.62532127  0.88272105     1.59900
O629        O  0.09114214  0.62089460  0.92999353    -0.80300
O630        O  0.20381848  0.61513885  0.84700934    -0.79000
C631        C  0.07984039  0.58195636  0.83942021     0.83600
C632        C  0.10079592  0.67724637  0.81861822     0.83200
O633        O  0.17022872  0.60450318  0.81326495    -0.77900
C634        C  0.18310294  0.68950102  0.90271678     0.84000
O635        O  0.09858726  0.59567057  0.82386629    -0.78000
C636        C  0.08838405  0.64828791  0.93537571     0.84200
C637        C  0.16838229  0.56738586  0.91648918     0.84500
O638        O  0.14061728  0.56709201  0.91234806    -0.80400
C639        C  0.98757882  0.73927916  0.69597058     0.03700
C640        C  0.96484042  0.75304404  0.71170876    -0.12500
C641        C  0.96516447  0.75348120  0.74241714     0.01200
C642        C  0.98895088  0.74109862  0.75732635    -0.11000
C643        C  0.01157076  0.72642071  0.74235493     0.03700
C644        C  0.01060808  0.72550580  0.71147151    -0.10400
H645        H  0.94678737  0.76326893  0.70007588     0.09300
H646        H  0.99000515  0.74343934  0.78094891     0.06800
H647        H  0.02769093  0.71430682  0.69941283     0.06600
C648        C  0.95037789  0.50493296  0.74607426     0.03700
C649        C  0.96586126  0.52155849  0.76713158    -0.12500
C650        C  0.99650501  0.51957583  0.76906489     0.01200
C651        C  0.01173650  0.50067386  0.75040383    -0.11000
C652        C  0.99678674  0.48399536  0.72945585     0.03700
C653        C  0.96626558  0.48651911  0.72689961    -0.10400
H654        H  0.95422666  0.53526535  0.78264279     0.09300
H655        H  0.03541852  0.49890274  0.75221585     0.06800
H656        H  0.95491432  0.47353867  0.71052435     0.06600
C657        C  0.32062161  0.49310156  0.76135031     0.03700
C658        C  0.30451688  0.46834461  0.75240977    -0.12500
C659        C  0.27368809  0.46871782  0.75247731     0.01200
C660        C  0.25912845  0.49400835  0.76226765    -0.11000
C661        C  0.27477951  0.51876282  0.77188692     0.03700
C662        C  0.30562933  0.51812755  0.77139128    -0.10400
H663        H  0.31601644  0.44897450  0.74479524     0.09300
H664        H  0.23538873  0.49478715  0.76166675     0.06800
H665        H  0.31799143  0.53745646  0.77763700     0.06600
C666        C  0.75265019  0.93934727  0.49765548     0.03700
C667        C  0.72963030  0.95592497  0.48535105    -0.12500
C668        C  0.73047229  0.98681383  0.48536130     0.01200
C669        C  0.75537541  0.00097105  0.49677401    -0.11000
C670        C  0.77841736  0.98500621  0.50948261     0.03700
C671        C  0.77689694  0.95421160  0.50981647    -0.10400
H672        H  0.71106497  0.94479218  0.47561357     0.09300
H673        H  0.75694101  0.02464948  0.49584296     0.06800
H674        H  0.79470328  0.94179374  0.51947421     0.06600
C675        C  0.00700092  0.26286652  0.44076494     0.03700
C676        C  0.02413626  0.28432364  0.45490667    -0.12500
C677        C  0.02717142  0.28400370  0.48539564     0.01200
C678        C  0.01295267  0.26239421  0.50192028    -0.11000
C679        C  0.99523758  0.24102706  0.48852512     0.03700
C680        C  0.99199478  0.24171429  0.45773547    -0.10400
H681        H  0.03578793  0.30069148  0.44217725     0.09300
H682        H  0.01659110  0.26176197  0.52541625     0.06800
H683        H  0.97841271  0.22553620  0.44685854     0.06600
C684        C  0.99747238  0.24303160  0.80881097     0.03700
C685        C  0.02216445  0.25387531  0.79369852    -0.12500
C686        C  0.02328026  0.25340665  0.76286469     0.01200
C687        C  0.99918160  0.24222298  0.74730126    -0.11000
C688        C  0.97429684  0.23144096  0.76189760     0.03700
C689        C  0.97366197  0.23168647  0.79269631    -0.10400
H690        H  0.04060621  0.26251463  0.80598848     0.09300
H691        H  0.99971176  0.24199507  0.72356755     0.06800
H692        H  0.95440726  0.22358282  0.80406045     0.06600
C693        C  0.50193977  0.74910414  0.30789581     0.03700
C694        C  0.48061778  0.73239173  0.29282687    -0.12500
C695        C  0.47722864  0.73503415  0.26231472     0.01200
C696        C  0.49526961  0.75438722  0.24678680    -0.11000
C697        C  0.51676394  0.77113984  0.26108024     0.03700
C698        C  0.52030167  0.76823038  0.29167914    -0.10400
H699        H  0.46668433  0.71729834  0.30481790     0.09300
H700        H  0.49285363  0.75609078  0.22317520     0.06800
H701        H  0.53655172  0.78148577  0.30289219     0.06600
C702        C  0.80096115  0.00165244  0.25027698     0.03700
C703        C  0.78671039  0.02428708  0.26602028    -0.12500
C704        C  0.75615061  0.02805887  0.26389262     0.01200
C705        C  0.73985640  0.00882779  0.24642234    -0.11000
C706        C  0.75343653  0.98628861  0.23054819     0.03700
C707        C  0.78398915  0.98256432  0.23269466    -0.10400
H708        H  0.79935140  0.03898918  0.27979309     0.09300
H709        H  0.71619283  0.01124757  0.24543067     0.06800
H710        H  0.79458949  0.96558490  0.21986906     0.06600
C711        C  0.25628721  0.81105823  0.00792679     0.03700
C712        C  0.27162428  0.79530100  0.02963960    -0.12500
C713        C  0.27331211  0.76462591  0.02806058     0.01200
C714        C  0.25907449  0.74974878  0.00527276    -0.11000
C715        C  0.24401892  0.76505811  0.98332105     0.03700
C716        C  0.24226419  0.79574507  0.98505462    -0.10400
H717        H  0.28326385  0.80688915  0.04684246     0.09300
H718        H  0.26006983  0.72598910  0.00458244     0.06800
H719        H  0.23038586  0.80776670  0.96833874     0.06600
C720        C  0.75787820  0.30258324  0.49412939     0.03700
C721        C  0.77576695  0.28541244  0.51279126    -0.12500
C722        C  0.77514767  0.25452482  0.51116934     0.01200
C723        C  0.75624987  0.24107442  0.49088671    -0.11000
C724        C  0.73831645  0.25765930  0.47230438     0.03700
C725        C  0.73917363  0.28837853  0.47391587    -0.10400
H726        H  0.79052309  0.29610835  0.52805225     0.09300
H727        H  0.75489783  0.21731988  0.48996167     0.06800
H728        H  0.72444268  0.30111438  0.46028894     0.06600
C729        C  0.18684803  0.50354753  0.25385655     0.03700
C730        C  0.20055094  0.52586635  0.23730408    -0.12500
C731        C  0.23128327  0.52725496  0.23555876     0.01200
C732        C  0.24828247  0.50641843  0.25035124    -0.11000
C733        C  0.23514016  0.48372799  0.26643304     0.03700
C734        C  0.20434939  0.48235245  0.26796945    -0.10400
H735        H  0.18742433  0.54163672  0.22530284     0.09300
H736        H  0.27200935  0.50774970  0.24894970     0.00400
H737        H  0.19392967  0.46472158  0.28003055     0.06600
C738        C  0.25467783  0.43117154  0.99171972     0.03700
C739        C  0.27720521  0.44611838  0.00704866    -0.12500
C740        C  0.27947340  0.47691267  0.00579203     0.01200
C741        C  0.25844957  0.49265618  0.98989437    -0.11000
C742        C  0.23643201  0.47837379  0.97406227     0.03700
C743        C  0.23455575  0.44766419  0.97485993    -0.10400
H744        H  0.29293673  0.43384303  0.01996489     0.09300
H745        H  0.25912774  0.51644986  0.98972250     0.06800
H746        H  0.21798185  0.43675158  0.96178923     0.06600
C747        C  0.42814206  0.99612493  0.25140586     0.03700
C748        C  0.44491595  0.00708068  0.27500132    -0.12500
C749        C  0.47573883  0.00826947  0.27340460     0.01200
C750        C  0.48971640  0.99839000  0.24786093    -0.11000
C751        C  0.47359295  0.98752861  0.22403319     0.03700
C752        C  0.44285768  0.98631842  0.22601308    -0.10400
H753        H  0.43403316  0.01522836  0.29441263     0.09300
H754        H  0.51343908  0.99939515  0.24638641     0.06800
H755        H  0.43039503  0.97789901  0.20762610     0.06600
C756        C  0.49904571  0.25155362  0.18655440     0.03700
C757        C  0.47820325  0.26928495  0.20119495    -0.12500
C758        C  0.47513103  0.26784493  0.23181143     0.01200
C759        C  0.49355025  0.24936205  0.24793628    -0.11000
C760        C  0.51478866  0.23208543  0.23414191     0.03700
C761        C  0.51763078  0.23323808  0.20343719    -0.10400
H762        H  0.46419953  0.28400326  0.18886753     0.09300
H763        H  0.49142589  0.24850767  0.27162377     0.06800
H764        H  0.53365313  0.21930990  0.19274842     0.06600
C765        C  0.25266820  0.18538910  0.49796886     0.03700
C766        C  0.24281488  0.20085763  0.52279488    -0.12500
C767        C  0.24330189  0.23164948  0.52325235     0.01200
C768        C  0.25413108  0.24689567  0.49890376    -0.11000
C769        C  0.26404547  0.23185059  0.47399998     0.03700
C770        C  0.26338486  0.20109105  0.47367653    -0.10400
H771        H  0.23522590  0.18899943  0.54193332     0.09300
H772        H  0.25490042  0.27067557  0.49939442     0.06800
H773        H  0.27102691  0.18940954  0.45442884     0.06600
C774        C  0.00775498  0.73944031  0.06294547     0.03700
C775        C  0.99243552  0.75969301  0.04519447    -0.12500
C776        C  0.99286136  0.75724971  0.01438796     0.01200
C777        C  0.00911990  0.73439746  0.00165229    -0.11000
C778        C  0.02336576  0.71339956  0.01886944     0.03700
C779        C  0.02291297  0.71605187  0.04948601    -0.10400
H780        H  0.98027077  0.77737040  0.05541024     0.09300
H781        H  0.01145987  0.73315521  0.97805145     0.06800
H782        H  0.03418773  0.69984173  0.06271064     0.06600
C783        C  0.76137042  0.06135298  0.00500475     0.03700
C784        C  0.73789036  0.04530695  0.01699159    -0.12500
C785        C  0.73802935  0.01450441  0.01668080     0.01200
C786        C  0.76226465  0.99975521  0.00474666    -0.11000
C787        C  0.78597770  0.01540188  0.99287812     0.03700
C788        C  0.78535030  0.04618206  0.99286837    -0.10400
H789        H  0.71933884  0.05681930  0.02637114     0.09300
H790        H  0.76251084  0.97596322  0.00429298     0.06800
H791        H  0.80338827  0.05826842  0.98314915     0.06600
C792        C  0.07319005  0.98888960  0.74785045     0.03700
C793        C  0.05693511  0.97434998  0.76983010    -0.12500
C794        C  0.02604725  0.97457459  0.76927782     0.01200
C795        C  0.01162321  0.98890572  0.74614915    -0.11000
C796        C  0.02740494  0.00353686  0.72422580     0.03700
C797        C  0.05812615  0.00342735  0.72515487    -0.10400
H798        H  0.06824561  0.96308658  0.78741003     0.09300
H799        H  0.98783541  0.98910215  0.74542459     0.06800
H800        H  0.07030722  0.01490269  0.70827229     0.06600
C801        C  0.19989747  0.71241173  0.91858138    -0.04900
C802        C  0.22980175  0.70782690  0.92450169    -0.32400
C803        C  0.24486050  0.72572987  0.94441014     0.36900
C804        C  0.22996486  0.74866006  0.95893822    -0.05300
C805        C  0.20072206  0.75464557  0.95136041    -0.32300
C806        C  0.18573536  0.73692262  0.93122979     0.36800
H807        H  0.24136870  0.68963953  0.91444989     0.17200
O808        O  0.27419452  0.72084027  0.94939200    -0.59700
H809        H  0.18894490  0.77224202  0.96217771     0.17200
O810        O  0.15661181  0.74244434  0.92599449    -0.59800
H811        H  0.15640656  0.75638675  0.90928690     0.44200
H812        H  0.27533961  0.70156208  0.95945420     0.44100
C813        C  0.18356973  0.54161051  0.92924603    -0.04900
C814        C  0.21246222  0.53580442  0.92012304    -0.32400
C815        C  0.22889199  0.51347115  0.93303239     0.36900
C816        C  0.21677005  0.49654657  0.95578080    -0.05300
C817        C  0.18736943  0.50101303  0.96392230    -0.32300
C818        C  0.17068079  0.52339663  0.95071578     0.36800
H819        H  0.22265328  0.54906584  0.90320799     0.17200
O820        O  0.25745090  0.50937147  0.92439176    -0.59700
H821        H  0.17791006  0.48826489  0.98161882     0.17200
O822        O  0.14245427  0.52818779  0.95999017    -0.59800
H823        H  0.14413847  0.54272263  0.97610304     0.44200
H824        H  0.25670356  0.49324034  0.90980073     0.44100
C825        C  0.04073212  0.69051425  0.00383007    -0.04900
C826        C  0.07113417  0.69432495  0.00162360    -0.32400
C827        C  0.08729177  0.67865832  0.98077568     0.36900
C828        C  0.07313013  0.65855234  0.96200238    -0.05300
C829        C  0.04318750  0.65264354  0.96607617    -0.32300
C830        C  0.02685969  0.66880643  0.98664201     0.36800
H831        H  0.08197910  0.71115896  0.01447100     0.17200
O832        O  0.11659888  0.68470418  0.97741913    -0.59700
H833        H  0.03201238  0.63728597  0.95175949     0.17200
O834        O  0.99715118  0.66434153  0.98881596    -0.59800
H835        H  0.98835711  0.67619674  0.97282300     0.44200
H836        H  0.12687662  0.66995454  0.98968101     0.44100
C837        C  0.21962530  0.58747347  0.80593160    -0.04900
C838        C  0.24589854  0.57991960  0.82043464    -0.32400
C839        C  0.26503019  0.55886632  0.80883391     0.36900
C840        C  0.25829391  0.54506046  0.78204269    -0.05300
C841        C  0.23356416  0.55461757  0.76619720    -0.32300
C842        C  0.21418525  0.57538667  0.77798038     0.36800
H843        H  0.25079153  0.58878790  0.84193747     0.17200
O844        O  0.28861425  0.54991761  0.82528053    -0.59700
H845        H  0.22848337  0.54494275  0.74508329     0.17200
O846        O  0.18963365  0.58302449  0.76231389    -0.59800
H847        H  0.17552483  0.56671724  0.76538644     0.44200
H848        H  0.30342163  0.56574785  0.82318552     0.44100
C849        C  0.01337040  0.53713859  0.79030355    -0.04900
C850        C  0.02092198  0.56603473  0.78313240    -0.32400
C851        C  0.04166883  0.58127772  0.79984687     0.36900
C852        C  0.05517261  0.56755580  0.82413120    -0.05300
C853        C  0.04617121  0.53928713  0.83236758    -0.32300
C854        C  0.02558184  0.52395844  0.81541894     0.36800
H855        H  0.01172658  0.57628745  0.76374377     0.17200
O856        O  0.04922369  0.60929689  0.79178244    -0.59700
H857        H  0.05625225  0.52850187  0.85100043     0.17200
O858        O  0.01877503  0.49551998  0.82255366    -0.59800
H859        H  0.00022674  0.49678657  0.83385844     0.44200
H860        H  0.03552874  0.62221509  0.80268452     0.44100
C861        C  0.03531555  0.71202438  0.75991600    -0.04900
C862        C  0.02765998  0.69884370  0.78675567    -0.32400
C863        C  0.04898756  0.68862755  0.80612052     0.36900
C864        C  0.07884587  0.68990115  0.79844404    -0.05300
C865        C  0.08678006  0.70119144  0.77091693    -0.32300
C866        C  0.06532109  0.71262054  0.75180524     0.36800
H867        H  0.00484596  0.69674239  0.79312810     0.17200
O868        O  0.04026196  0.67616969  0.83211265    -0.59700
H869        H  0.10968353  0.70185207  0.76454762     0.17200
O870        O  0.07412880  0.72567310  0.72617286    -0.59800
H871        H  0.08008032  0.70928510  0.71313250     0.44200
H872        H  0.03668514  0.69291199  0.84555311     0.44100
C873        C  0.96831750  0.93320609  0.83199178    -0.04900
C874        C  0.99339474  0.91823909  0.82178651    -0.32400
C875        C  0.01308819  0.93166162  0.80227081     0.36900
C876        C  0.00817355  0.96072011  0.79286159    -0.05300
C877        C  0.98417898  0.97621808  0.80447975    -0.32300
C878        C  0.96440102  0.96282264  0.82373421     0.36800
H879        H  0.99705902  0.89551319  0.82774560     0.17200
O880        O  0.03614158  0.91563033  0.79142713    -0.59700
H881        H  0.98027255  0.99876310  0.79797487     0.17200
O882        O  0.94071668  0.97869491  0.83338132    -0.59800
H883        H  0.94740814  0.98830193  0.85172221     0.44200
H884        H  0.02873498  0.90670195  0.77301537     0.44100
C885        C  0.84817878  0.96122106  0.94768098    -0.04900
C886        C  0.84396517  0.95790325  0.97805805    -0.32400
C887        C  0.82515759  0.97662748  0.99346263     0.36900
C888        C  0.81019676  0.99918741  0.97859121    -0.05300
C889        C  0.81614136  0.00408100  0.94882935    -0.32300
C890        C  0.83474629  0.98522140  0.93326664     0.36800
H891        H  0.85418529  0.93986671  0.98970630     0.17200
O892        O  0.82044861  0.97183166  0.02278733    -0.59700
H893        H  0.80475692  0.02137210  0.93711782     0.17200
O894        O  0.83793575  0.98935019  0.90362372    -0.59800
H895        H  0.82125497  0.97870307  0.89451910     0.44200
H896        H  0.83412828  0.98532975  0.03301312     0.44100
C897        C  0.94985146  0.81943428  0.95703361    -0.04900
C898        C  0.94979445  0.78943505  0.95042652    -0.32400
C899        C  0.96262252  0.76902635  0.96936534     0.36900
C900        C  0.97698284  0.77856963  0.99516867    -0.05300
C901        C  0.97664054  0.80877411  0.00197441    -0.32300
C902        C  0.96265881  0.82905671  0.98340485     0.36800
H903        H  0.93881774  0.78158908  0.93082759     0.17200
O904        O  0.95944461  0.73965369  0.96332679    -0.59700
H905        H  0.98751193  0.81678200  0.02152733     0.17200
O906        O  0.96256390  0.85826793  0.99067080    -0.59800
H907        H  0.94490618  0.86096888  0.00309732     0.44200
H908        H  0.97040929  0.73618488  0.94484096     0.44100
C909        C  0.90749181  0.80125092  0.79895989    -0.04900
C910        C  0.91121179  0.77104269  0.80317212    -0.32400
C911        C  0.92842981  0.75464049  0.78365679     0.36900
C912        C  0.94194193  0.76854533  0.75948480    -0.05300
C913        C  0.93613329  0.79828997  0.75408095    -0.32300
C914        C  0.91920720  0.81467669  0.77376503     0.36800
H915        H  0.90259607  0.76060517  0.82272380     0.17200
O916        O  0.93272295  0.72524886  0.78877995    -0.59700
H917        H  0.94654526  0.80935496  0.73579279     0.17200
O918        O  0.91656294  0.84439243  0.76971851    -0.59800
H919        H  0.89837556  0.84691655  0.75803715     0.44200
H920        H  0.94568635  0.72417602  0.80623522     0.44100
C921        C  0.76413252  0.95789684  0.78346917    -0.04900
C922        C  0.76318583  0.92709553  0.78199976    -0.32400
C923        C  0.78282861  0.90992634  0.79860339     0.36900
C924        C  0.80351859  0.92361911  0.81722161    -0.05300
C925        C  0.80342531  0.95443741  0.81931002    -0.32300
C926        C  0.78408659  0.97141380  0.80278465     0.36800
H927        H  0.74805821  0.91641378  0.76708302     0.17200
O928        O  0.78221157  0.87997753  0.79569106    -0.59700
H929        H  0.81869195  0.96565531  0.83369439     0.17200
O930        O  0.78543476  0.00142983  0.80507807    -0.59800
H931        H  0.76897836  0.00691157  0.81821714     0.44200
H932        H  0.79631884  0.87551873  0.77973257     0.44100
C933        C  0.91514384  0.18704022  0.70412687    -0.04900
C934        C  0.92151280  0.21671899  0.69936943    -0.32400
C935        C  0.93887541  0.23236928  0.71937255     0.36900
C936        C  0.95012517  0.21816467  0.74450368    -0.05300
C937        C  0.94123428  0.18926872  0.75058181    -0.32300
C938        C  0.92393146  0.17366928  0.73050226     0.36800
H939        H  0.91483412  0.22718670  0.67908770     0.17200
O940        O  0.94546702  0.26127119  0.71386462    -0.59700
H941        H  0.94960581  0.17799751  0.76976833     0.17200
O942        O  0.91805877  0.14457234  0.73551796    -0.59800
H943        H  0.89990433  0.14444373  0.74751370     0.44200
H944        H  0.95794197  0.26121002  0.69602658     0.44100
C945        C  0.95714247  0.17545579  0.54602590    -0.04900
C946        C  0.96856490  0.16703458  0.51868150    -0.32400
C947        C  0.98096318  0.18797821  0.49958019     0.36900
C948        C  0.98110985  0.21804972  0.50729077    -0.05300
C949        C  0.96912323  0.22626484  0.53451762    -0.32300
C950        C  0.95777738  0.20535198  0.55389773     0.36800
H951        H  0.96833970  0.14411806  0.51233351     0.17200
O952        O  0.99431765  0.17862882  0.47428918    -0.59700
H953        H  0.96850958  0.24916109  0.54092639     0.17200
O954        O  0.94588209  0.21461646  0.57995503    -0.59800
H955        H  0.96272564  0.21623796  0.59365252     0.44200
H956        H  0.97809068  0.17275513  0.46101920     0.44100
C957        C  0.97355438  0.05200377  0.66384182    -0.04900
C958        C  0.99724127  0.06584237  0.67803933    -0.32400
C959        C  0.01597426  0.05000175  0.69660002     0.36900
C960        C  0.01124874  0.01980073  0.70117572    -0.05300
C961        C  0.98883045  0.00558280  0.68559309    -0.32300
C962        C  0.97003030  0.02135713  0.66713890     0.36800
H963        H  0.00032516  0.08934653  0.67611731     0.17200
O964        O  0.03716536  0.06472130  0.71212944    -0.59700
H965        H  0.98524248  0.98224531  0.68853959     0.17200
O966        O  0.94808158  0.00660138  0.65271494    -0.59800
H967        H  0.93255692  0.00331713  0.66761793     0.44200
H968        H  0.05357856  0.06759278  0.69813195     0.44100
C969        C  0.79408605  0.23544369  0.52988184    -0.04900
C970        C  0.80874134  0.21187318  0.51659761    -0.32400
C971        C  0.82352037  0.19085853  0.53321801     0.36900
C972        C  0.82480915  0.19330478  0.56416462    -0.05300
C973        C  0.81084468  0.21740450  0.57755920    -0.32300
C974        C  0.79562291  0.23839591  0.56067111     0.36800
H975        H  0.80810802  0.20924480  0.49297572     0.17200
O976        O  0.83622545  0.16772188  0.51871290    -0.59700
H977        H  0.81150511  0.21991587  0.60117747     0.17200
O978        O  0.78096095  0.26067482  0.57459907    -0.59800
H979        H  0.79628483  0.27524684  0.57977940     0.44200
H980        H  0.82089772  0.15224946  0.51808223     0.44100
C981        C  0.80359236  0.00100366  0.52286144    -0.04900
C982        C  0.81652724  0.02457826  0.50771316    -0.32400
C983        C  0.83751422  0.04260632  0.52119688     0.36900
C984        C  0.84650938  0.03691686  0.55026379    -0.05300
C985        C  0.83464357  0.01231825  0.56481255    -0.32300
C986        C  0.81329497  0.99461969  0.55149853     0.36800
H987        H  0.80965163  0.02963623  0.48552894     0.17200
O988        O  0.84861474  0.06602550  0.50587895    -0.59700
H989        H  0.84061011  0.00762809  0.58733665     0.17200
O990        O  0.80021478  0.97280867  0.56763954    -0.59800
H991        H  0.81494377  0.95681307  0.56873179     0.44200
H992        H  0.83355741  0.08166495  0.50758665     0.44100
C993        C  0.80558790  0.06868922  0.67717314    -0.04900
C994        C  0.78781985  0.08225468  0.69843781    -0.32400
C995        C  0.76687235  0.06582989  0.71411815     0.36900
C996        C  0.76322578  0.03570421  0.70814865    -0.05300
C997        C  0.77956467  0.02274622  0.68564419    -0.32300
C998        C  0.80056718  0.03885632  0.67025180     0.36800
H999        H  0.79115691  0.10515792  0.70389900     0.17200
O1000       O  0.75109733  0.07901714  0.73607983    -0.59700
H1001       H  0.77679845  0.99961979  0.68074400     0.17200
O1002       O  0.81599137  0.02522370  0.64825772    -0.59800
H1003       H  0.83101854  0.01312447  0.65835078     0.44200
H1004       H  0.76312292  0.07648602  0.75404336     0.44100
C1005       C  0.78370597  0.75849732  0.97050988    -0.04900
C1006       C  0.80559556  0.77561040  0.98356111    -0.32400
C1007       C  0.82174006  0.79582093  0.96718872     0.36900
C1008       C  0.81584868  0.79985622  0.93689420    -0.05300
C1009       C  0.79460522  0.78177077  0.92354023    -0.32300
C1010       C  0.77853679  0.76126548  0.94017081     0.36800
H1011       H  0.80977924  0.77371967  0.00689798     0.17200
O1012       O  0.84290723  0.81185781  0.98141056    -0.59700
H1013       H  0.78987921  0.78402347  0.90036465     0.17200
O1014       O  0.75712469  0.74485373  0.92681441    -0.59800
H1015       H  0.73873342  0.75618982  0.92948146     0.44200
H1016       H  0.86128010  0.80040195  0.97908929     0.44100
C1017       C  0.52801000  0.95260146  0.15538086    -0.04900
C1018       C  0.50256361  0.93745554  0.16419965    -0.32400
C1019       C  0.48370467  0.94916505  0.18538607     0.36900
C1020       C  0.48953832  0.97696255  0.19759933    -0.05300
C1021       C  0.51316670  0.99344242  0.18650059    -0.32300
C1022       C  0.53251198  0.98143331  0.16585185     0.36800
H1023       H  0.49840061  0.91534519  0.15649641     0.17200
O1024       O  0.46098593  0.93221878  0.19554098    -0.59700
H1025       H  0.51755674  0.01522186  0.19500980     0.17200
O1026       O  0.55619932  0.99773220  0.15684354    -0.59800
H1027       H  0.57042489  0.99688823  0.17330695     0.44200
H1028       H  0.46935064  0.92070467  0.21200709     0.44100
C1029       C  0.69249187  0.93406319  0.18067666    -0.04900
C1030       C  0.69570553  0.96434808  0.17540467    -0.32400
C1031       C  0.71643609  0.98105300  0.19048270     0.36900
C1032       C  0.73498268  0.96769684  0.21120179    -0.05300
C1033       C  0.73329634  0.93715114  0.21535215    -0.32300
C1034       C  0.71215693  0.92030407  0.20031059     0.36800
H1035       H  0.68173101  0.97551527  0.15973777     0.17200
O1036       O  0.71855980  0.01057843  0.18474102    -0.59700
H1037       H  0.74749152  0.92657300  0.23122090     0.17200
O1038       O  0.71054737  0.89070590  0.20551951    -0.59800
H1039       H  0.69644583  0.88856561  0.22195297     0.44200
H1040       H  0.70069408  0.01952639  0.19339362     0.44100
C1041       C  0.71271777  0.99754511  0.02826240    -0.04900
C1042       C  0.70109473  0.97419305  0.01177143    -0.32400
C1043       C  0.67858734  0.95649872  0.02302238     0.36900
C1044       C  0.66689712  0.96232332  0.05104879    -0.05300
C1045       C  0.67764715  0.98655406  0.06692217    -0.32300
C1046       C  0.70056559  0.00378675  0.05597760     0.36800
H1047       H  0.70981327  0.96935326  0.99019560     0.17200
O1048       O  0.66813908  0.93366602  0.00640201    -0.59700
H1049       H  0.66946214  0.99122793  0.08874484     0.17200
O1050       O  0.71182803  0.02576260  0.07321662    -0.59800
H1051       H  0.72816434  0.01655420  0.08427419     0.44200
H1052       H  0.68282563  0.91774678  0.00862066     0.44100
C1053       C  0.56644483  0.82373613  0.20013177    -0.04900
C1054       C  0.53621231  0.82847983  0.20434352    -0.32400
C1055       C  0.52045869  0.81293768  0.22557526     0.36900
C1056       C  0.53460004  0.79181920  0.24315195    -0.05300
C1057       C  0.56508835  0.78805934  0.24025393    -0.32300
C1058       C  0.58106127  0.80395519  0.21904655     0.36800
H1059       H  0.52445407  0.84403688  0.19073204     0.17200
O1060       O  0.49083142  0.81768898  0.22817142    -0.59700
H1061       H  0.57627940  0.77175035  0.25344642     0.17200
O1062       O  0.61048224  0.79853767  0.21579173    -0.59800
H1063       H  0.62029782  0.81157439  0.23019904     0.44200
H1064       H  0.48878645  0.83213428  0.24431486     0.44100
C1065       C  0.67772726  0.79958157  0.08211535    -0.04900
C1066       C  0.70773628  0.79653281  0.08811221    -0.32400
C1067       C  0.72467567  0.77610349  0.07248672     0.36900
C1068       C  0.71136995  0.75795314  0.05121493    -0.05300
C1069       C  0.68096045  0.75953391  0.04693349    -0.32300
C1070       C  0.66418640  0.78032415  0.06205741     0.36800
H1071       H  0.71839074  0.81127318  0.10343968     0.17200
O1072       O  0.75433284  0.77450087  0.07750928    -0.59700
H1073       H  0.67050992  0.74589495  0.03048559     0.17200
O1074       O  0.63479460  0.78275442  0.05595840    -0.59800
H1075       H  0.62489088  0.76990465  0.07046270     0.44200
H1076       H  0.76293195  0.79142640  0.06685183     0.44100
C1077       C  0.28996571  0.57993373  0.18520854    -0.04900
C1078       C  0.27554799  0.55586988  0.17232599    -0.32400
C1079       C  0.25397352  0.54030603  0.18768509     0.36900
C1080       C  0.24664591  0.54850602  0.21647820    -0.05300
C1081       C  0.25956907  0.57368240  0.22873205    -0.32300
C1082       C  0.28093223  0.58959380  0.21314444     0.36800
H1083       H  0.28193636  0.54833587  0.15069616     0.17200
O1084       O  0.24137670  0.51602517  0.17506011    -0.59700
H1085       H  0.25439699  0.57993237  0.25107188     0.17200
O1086       O  0.29428098  0.61318872  0.22623126    -0.59800
H1087       H  0.31126416  0.60489326  0.23703271     0.44200
H1088       H  0.25450575  0.49942430  0.18016354     0.44100
C1089       C  0.30267477  0.49349238  0.02182682    -0.04900
C1090       C  0.30814423  0.48762697  0.05155040    -0.32400
C1091       C  0.32525186  0.50684687  0.06851682     0.36900
C1092       C  0.33718324  0.53255287  0.05580061    -0.05300
C1093       C  0.33361405  0.53703440  0.02553573    -0.32300
C1094       C  0.31697008  0.51760611  0.00855456     0.36800
H1095       H  0.29764280  0.46911702  0.06215863     0.17200
O1096       O  0.32873553  0.50104673  0.09783489    -0.59700
H1097       H  0.34310109  0.55616023  0.01505108     0.17200
O1098       O  0.31384938  0.52308265  0.97912402    -0.59800
H1099       H  0.32962911  0.51159147  0.96950283     0.44200
H1100       H  0.31143595  0.51001064  0.10754043     0.44100
C1101       C  0.32171947  0.70295544  0.07900619    -0.04900
C1102       C  0.29965848  0.71965511  0.09269803    -0.32400
C1103       C  0.28501726  0.74192344  0.07713714     0.36900
C1104       C  0.29243311  0.74742021  0.04767727    -0.05300
C1105       C  0.31611520  0.73253426  0.03502405    -0.32300
C1106       C  0.33090336  0.71072129  0.05044781     0.36800
H1107       H  0.29275243  0.71446021  0.11483409     0.17200
O1108       O  0.26212349  0.75653138  0.09007594    -0.59700
H1109       H  0.32227799  0.73693780  0.01247785     0.17200
O1110       O  0.35368464  0.69640736  0.03690235    -0.59800
H1111       H  0.37178573  0.70602130  0.04440838     0.44200
H1112       H  0.27109764  0.77413729  0.09921191     0.44100
C1113       C  0.45605635  0.71669531  0.24575003    -0.04900
C1114       C  0.46126437  0.68650268  0.24299040    -0.32400
C1115       C  0.44520265  0.66962282  0.22290140     0.36900
C1116       C  0.42287930  0.68268927  0.20590090    -0.05300
C1117       C  0.41643626  0.71251571  0.20993729    -0.32300
C1118       C  0.43313862  0.72960840  0.22941726     0.36800
H1119       H  0.47897003  0.67633804  0.25519303     0.17200
O1120       O  0.45169443  0.64037577  0.21971249    -0.59700
H1121       H  0.39961182  0.72293164  0.19674798     0.17200
O1122       O  0.42795095  0.75920461  0.23125920    -0.59800
H1123       H  0.41185207  0.76126344  0.24574652     0.44200
H1124       H  0.46876926  0.63970817  0.20622961     0.44100
C1125       C  0.52281762  0.79262023  0.99725414    -0.04900
C1126       C  0.55049658  0.80404454  0.99019514    -0.32400
C1127       C  0.56378075  0.82539689  0.00790725     0.36900
C1128       C  0.54928393  0.83595156  0.03330028    -0.05300
C1129       C  0.52059149  0.82611401  0.03898109    -0.32300
C1130       C  0.50735176  0.80469599  0.02120359     0.36800
H1131       H  0.56265965  0.79518276  0.97178902     0.17200
O1132       O  0.59159641  0.83457448  0.00089997    -0.59700
H1133       H  0.50869302  0.83426560  0.05787297     0.17200
O1134       O  0.47920264  0.79577158  0.02724638    -0.59800
H1135       H  0.48041994  0.78478619  0.04599275     0.44200
H1136       H  0.60493273  0.81997143  0.01001643     0.44100
C1137       C  0.47990189  0.69181866  0.00085630    -0.04900
C1138       C  0.45222188  0.68043783  0.99370826    -0.32400
C1139       C  0.43725472  0.66191047  0.01307698     0.36900
C1140       C  0.44959648  0.65486792  0.04072007    -0.05300
C1141       C  0.47845849  0.66411221  0.04667394    -0.32300
C1142       C  0.49373274  0.68202648  0.02681780     0.36800
H1143       H  0.44124245  0.68734234  0.97378791     0.17200
O1144       O  0.40958779  0.65276578  0.00551405    -0.59700
H1145       H  0.48888758  0.65834425  0.06723972     0.17200
O1146       O  0.52177108  0.69072590  0.03354053    -0.59800
H1147       H  0.53472713  0.67691704  0.02282131     0.44200
H1148       H  0.41244351  0.63348438  0.99580576     0.44100
C1149       C  0.49379570  0.51979928  0.21288059    -0.04900
C1150       C  0.46779122  0.50589521  0.20364563    -0.32400
C1151       C  0.44820779  0.51995091  0.18460362     0.36900
C1152       C  0.45461633  0.54833500  0.17411787    -0.05300
C1153       C  0.48127017  0.56164025  0.18238012    -0.32300
C1154       C  0.50054173  0.54783567  0.20178594     0.36800
H1155       H  0.46229658  0.48421784  0.21174924     0.17200
O1156       O  0.42256221  0.50604886  0.17713154    -0.59700
H1157       H  0.48667493  0.58357829  0.17494829     0.17200
O1158       O  0.52511138  0.56268329  0.21089679    -0.59800
H1159       H  0.51899063  0.57344450  0.22878981     0.44200
H1160       H  0.42769048  0.49329567  0.16026794     0.44100
C1161       C  0.32236354  0.45310054  0.44307435    -0.04900
C1162       C  0.29183504  0.45508788  0.43862450    -0.32400
C1163       C  0.27497889  0.47621314  0.45292306     0.36900
C1164       C  0.28822403  0.49603921  0.47248800    -0.05300
C1165       C  0.31883830  0.49514721  0.47629612    -0.32300
C1166       C  0.33596988  0.47394614  0.46162517     0.36800
H1167       H  0.28065085  0.44001728  0.42401921     0.17200
O1168       O  0.24521989  0.47676186  0.44827206    -0.59700
H1169       H  0.32931079  0.51018025  0.49145419     0.17200
O1170       O  0.36563612  0.47305717  0.46661467    -0.59800
H1171       H  0.37417530  0.48752416  0.45277324     0.44200
H1172       H  0.24234061  0.49023356  0.43143126     0.44100
C1173       C  0.45762352  0.44280737  0.34674221    -0.04900
C1174       C  0.48207385  0.42694242  0.33680093    -0.32400
C1175       C  0.50263016  0.44000684  0.31799883     0.36900
C1176       C  0.49883820  0.46941532  0.30914405    -0.05300
C1177       C  0.47589615  0.48594597  0.32159770    -0.32300
C1178       C  0.45509816  0.47269571  0.33985874     0.36800
H1179       H  0.48390095  0.40371570  0.34162929     0.17200
O1180       O  0.52475855  0.42314673  0.30649504    -0.59700
H1181       H  0.47283593  0.50870025  0.31537117     0.17200
O1182       O  0.43132326  0.48858719  0.34928035    -0.59800
H1183       H  0.41684322  0.48743906  0.33306405     0.44200
H1184       H  0.51633569  0.41405710  0.28860221     0.44100
C1185       C  0.30765096  0.28771119  0.41249730    -0.04900
C1186       C  0.27816713  0.29300409  0.41993659    -0.32400
C1187       C  0.26284520  0.27368378  0.43813245     0.36900
C1188       C  0.27698339  0.24863748  0.44942944    -0.05300
C1189       C  0.30532929  0.24171396  0.43968485    -0.32300
C1190       C  0.32074173  0.26100422  0.42142175     0.36800
H1191       H  0.26730252  0.31293050  0.41283948     0.17200
O1192       O  0.23453439  0.28027462  0.44598219    -0.59700
H1193       H  0.31639001  0.22233042  0.44791279     0.17200
O1194       O  0.34911321  0.25423520  0.41393877    -0.59800
H1195       H  0.36124050  0.26078867  0.43079355     0.44200
H1196       H  0.22204087  0.26969208  0.43164636     0.44100
C1197       C  0.29404553  0.42397485  0.31019242    -0.04900
C1198       C  0.26907112  0.43472063  0.32481011    -0.32400
C1199       C  0.24928548  0.45353010  0.31070619     0.36900
C1200       C  0.25401727  0.46161362  0.28125596    -0.05300
C1201       C  0.27832044  0.44982024  0.26627194    -0.32300
C1202       C  0.29841348  0.43147606  0.28057119     0.36800
H1203       H  0.26555323  0.42969508  0.34777916     0.17200
O1204       O  0.22679613  0.46572089  0.32659323    -0.59700
H1205       H  0.28209839  0.45533215  0.24346285     0.17200
O1206       O  0.32205828  0.42079422  0.26531013    -0.59800
H1207       H  0.33671948  0.43689867  0.26544472     0.44200
H1208       H  0.21244292  0.44962212  0.32959271     0.44100
C1209       C  0.41767039  0.31568823  0.28878147    -0.04900
C1210       C  0.43552070  0.33098651  0.26874799    -0.32400
C1211       C  0.45301117  0.31577356  0.24845070     0.36900
C1212       C  0.45258142  0.28488493  0.24789109    -0.05300
C1213       C  0.43306951  0.26979753  0.26636307    -0.32300
C1214       C  0.41585067  0.28490132  0.28678611     0.36800
H1215       H  0.43734245  0.35467116  0.27004930     0.17200
O1216       O  0.47234822  0.33110411  0.23122231    -0.59700
H1217       H  0.43225623  0.24602016  0.26591205     0.17200
O1218       O  0.39748569  0.26936015  0.30489841    -0.59800
H1219       H  0.41035237  0.26098732  0.32033019     0.44200
H1220       H  0.46082477  0.33718484  0.21379935     0.44100
C1221       C  0.43743863  0.32971270  0.45858881    -0.04900
C1222       C  0.46644889  0.32083999  0.45385662    -0.32400
C1223       C  0.48087351  0.30301453  0.47424288     0.36900
C1224       C  0.46589056  0.29281224  0.49940243    -0.05300
C1225       C  0.43728943  0.30303409  0.50485919    -0.32300
C1226       C  0.42304372  0.32135576  0.48460244     0.36800
H1227       H  0.47771616  0.32717539  0.43389877     0.17200
O1228       O  0.50937435  0.29491916  0.46889023    -0.59700
H1229       H  0.42537838  0.29552145  0.52400653     0.17200
O1230       O  0.39452493  0.32961830  0.48960947    -0.59800
H1231       H  0.38234653  0.31417535  0.48025217     0.44200
H1232       H  0.52153517  0.30989116  0.47898388     0.44100
C1233       C  0.53401573  0.04958507  0.33549603    -0.04900
C1234       C  0.50652429  0.06215092  0.32914070    -0.32400
C1235       C  0.48666938  0.04832517  0.31019763     0.36900
C1236       C  0.49385411  0.02109216  0.29742762    -0.05300
C1237       C  0.52039712  0.00747693  0.30547718    -0.32300
C1238       C  0.54052288  0.02156858  0.32399804     0.36800
H1239       H  0.50096321  0.08373393  0.33742674     0.17200
O1240       O  0.46163534  0.06300170  0.30217081    -0.59700
H1241       H  0.52612178  0.98624124  0.29642397     0.17200
O1242       O  0.56662739  0.00791784  0.33026832    -0.59800
H1243       H  0.57930192  0.01150115  0.31293945     0.44200
H1244       H  0.44844260  0.06176267  0.31943409     0.44100
C1245       C  0.74012288  0.05076077  0.28087789    -0.04900
C1246       C  0.73906778  0.04858411  0.31151008    -0.32400
C1247       C  0.71832259  0.06463509  0.32758998     0.36900
C1248       C  0.69880349  0.08384545  0.31315864    -0.05300
C1249       C  0.70143287  0.08784874  0.28279368    -0.32300
C1250       C  0.72178823  0.07129586  0.26661163     0.36800
H1251       H  0.75286405  0.03282696  0.32278122     0.17200
O1252       O  0.71661279  0.06077072  0.35739419    -0.59700
H1253       H  0.68640891  0.10232020  0.27137655     0.17200
O1254       O  0.72233122  0.07392993  0.23665028    -0.59800
H1255       H  0.73703511  0.08945883  0.23259363     0.44200
H1256       H  0.70543635  0.04228906  0.36017392     0.44100
C1257       C  0.67948408  0.20312514  0.42266087    -0.04900
C1258       C  0.70117261  0.21945315  0.40787073    -0.32400
C1259       C  0.71967837  0.23881757  0.42341854     0.36900
C1260       C  0.71646498  0.24203643  0.45400015    -0.05300
C1261       C  0.69375681  0.22718038  0.46829508    -0.32300
C1262       C  0.67515783  0.20830739  0.45297774     0.36800
H1263       H  0.70465239  0.21625438  0.38458602     0.17200
O1264       O  0.74142438  0.25362843  0.40880011    -0.59700
H1265       H  0.69090636  0.22967277  0.49177253     0.17200
O1266       O  0.65317378  0.19445700  0.46820545    -0.59800
H1267       H  0.63561387  0.20705688  0.46559235     0.44200
H1268       H  0.75829088  0.23988407  0.40818253     0.44100
C1269       C  0.56478637  0.18295926  0.29733544    -0.04900
C1270       C  0.53534690  0.17569528  0.29125439    -0.32400
C1271       C  0.51953865  0.19032933  0.26937756     0.36900
C1272       C  0.53301328  0.21256898  0.25274852    -0.05300
C1273       C  0.56275710  0.21900820  0.25764980    -0.32300
C1274       C  0.57870514  0.20428802  0.27963769     0.36800
H1275       H  0.52422551  0.15887510  0.30386597     0.17200
O1276       O  0.49069638  0.18301926  0.26456416    -0.59700
H1277       H  0.57325360  0.23643693  0.24533960     0.17200
O1278       O  0.60727559  0.21223283  0.28475703    -0.59800
H1279       H  0.61908899  0.19993989  0.27124484     0.44200
H1280       H  0.47949676  0.19294626  0.28036378     0.44100
C1281       C  0.54811464  0.16061100  0.46567144    -0.04900
C1282       C  0.56352923  0.17411648  0.48884097    -0.32400
C1283       C  0.54913644  0.19257200  0.50884894     0.36900
C1284       C  0.51882827  0.19777989  0.50595821    -0.05300
C1285       C  0.50300762  0.18232064  0.48447034    -0.32300
C1286       C  0.51735747  0.16392175  0.46441984     0.36800
H1287       H  0.58716626  0.17195768  0.49038119     0.17200
O1288       O  0.56536282  0.20762764  0.52925286    -0.59700
H1289       H  0.47956112  0.18571403  0.48228982     0.17200
O1290       O  0.50115631  0.14966368  0.44342366    -0.59800
H1291       H  0.49668802  0.16474145  0.42837557     0.44200
H1292       H  0.56785232  0.19378749  0.54585836     0.44100
C1293       C  0.66343734  0.04028390  0.44457031    -0.04900
C1294       C  0.67556549  0.04854112  0.47166028    -0.32400
C1295       C  0.69643550  0.03089583  0.48575377     0.36900
C1296       C  0.70591024  0.00441666  0.47265113    -0.05300
C1297       C  0.69231991  0.99522938  0.44654005    -0.32300
C1298       C  0.67116535  0.01267813  0.43265990     0.36800
H1299       H  0.66948617  0.06920841  0.48172862     0.17200
O1300       O  0.70689084  0.03938684  0.51270638    -0.59700
H1301       H  0.69889491  0.97493589  0.43606273     0.17200
O1302       O  0.65881248  0.00272667  0.40706650    -0.59800
H1303       H  0.67323197  0.00750908  0.39148407     0.44200
H1304       H  0.71795043  0.05783750  0.50924033     0.44100
C1305       C  0.17829930  0.45846273  0.57710239    -0.04900
C1306       C  0.16725627  0.46814676  0.55002738    -0.32400
C1307       C  0.18239703  0.48953579  0.53380705     0.36900
C1308       C  0.20829981  0.50207550  0.54511744    -0.05300
C1309       C  0.21780681  0.49423726  0.57326085    -0.32300
C1310       C  0.20298125  0.47263354  0.58926778     0.36800
H1311       H  0.14814013  0.45766110  0.54051377     0.17200
O1312       O  0.17267947  0.49689388  0.50629338    -0.59700
H1313       H  0.23784237  0.50357735  0.58206511     0.17200
O1314       O  0.21357994  0.46454005  0.61624703    -0.59800
H1315       H  0.20271378  0.47684299  0.63053298     0.44200
H1316       H  0.18185122  0.48237634  0.49291908     0.44100
C1317       C  0.04833210  0.26672234  0.74657082    -0.04900
C1318       C  0.05873695  0.29447904  0.75492861    -0.32400
C1319       C  0.07863877  0.30990969  0.73732538     0.36900
C1320       C  0.08870071  0.29764596  0.71065380    -0.05300
C1321       C  0.07976129  0.26903285  0.70328207    -0.32300
C1322       C  0.06008427  0.25349018  0.72111948     0.36800
H1323       H  0.05011845  0.30510516  0.77436354     0.17200
O1324       O  0.08680176  0.33764025  0.74576615    -0.59700
H1325       H  0.08749156  0.25887655  0.68323009     0.17200
O1326       O  0.05193938  0.22564627  0.71303525    -0.59800
H1327       H  0.06542881  0.21241192  0.72382522     0.44200
H1328       H  0.07135564  0.35080729  0.73787938     0.44100
C1329       C  0.04776127  0.30373521  0.50058081    -0.04900
C1330       C  0.07468416  0.29215154  0.50970445    -0.32400
C1331       C  0.09116491  0.30628414  0.53131289     0.36900
C1332       C  0.08071427  0.33250873  0.54406888    -0.05300
C1333       C  0.05535971  0.34576684  0.53255158    -0.32300
C1334       C  0.03877134  0.33140994  0.51093076     0.36800
H1335       H  0.08194590  0.27102997  0.50150136     0.17200
O1336       O  0.11713742  0.29394696  0.54035555    -0.59700
H1337       H  0.04725906  0.36612225  0.54179505     0.17200
O1338       O  0.01260755  0.34330278  0.50200881    -0.59800
H1339       H  0.01695558  0.35294638  0.48299734     0.44200
H1340       H  0.11150210  0.27709745  0.55294100     0.44100
C1341       C  0.21915694  0.40708007  0.70615466    -0.04900
C1342       C  0.21166094  0.41566740  0.73481483    -0.32400
C1343       C  0.23007853  0.43423492  0.75109731     0.36900
C1344       C  0.25657219  0.44451660  0.73878722    -0.05300
C1345       C  0.26520581  0.43393573  0.71122029    -0.32300
C1346       C  0.24688190  0.41549062  0.69492838     0.36800
H1347       H  0.19090241  0.40897148  0.74428661     0.17200
O1348       O  0.22209643  0.44218851  0.77903432    -0.59700
H1349       H  0.28548175  0.44145997  0.70132182     0.17200
O1350       O  0.25586346  0.40705213  0.66746609    -0.59800
H1351       H  0.25079396  0.42370637  0.65439550     0.44200
H1352       H  0.20413068  0.45429950  0.77684044     0.44100
C1353       C  0.20506014  0.28778046  0.58834023    -0.04900
C1354       C  0.18940870  0.26342168  0.57753687    -0.32400
C1355       C  0.20220969  0.24395782  0.55762649     0.36900
C1356       C  0.23127663  0.24845473  0.54830215    -0.05300
C1357       C  0.24766249  0.27155203  0.56059717    -0.32300
C1358       C  0.23473949  0.29124244  0.58038890     0.36800
H1359       H  0.16646210  0.26039996  0.58303181     0.17200
O1360       O  0.18521967  0.22238034  0.54525035    -0.59700
H1361       H  0.27023095  0.27500371  0.55391952     0.17200
O1362       O  0.25119049  0.31383909  0.59160843    -0.59800
H1363       H  0.25197089  0.32880240  0.57582178     0.44200
H1364       H  0.18454801  0.20641217  0.56003462     0.44100
C1365       C  0.01359969  0.46304566  0.71148747    -0.04900
C1366       C  0.01780790  0.46818768  0.68145983    -0.32400
C1367       C  0.03840876  0.45170422  0.66557450     0.36900
C1368       C  0.05504218  0.42981393  0.67989145    -0.05300
C1369       C  0.04908219  0.42349960  0.70949521    -0.32300
C1370       C  0.02851358  0.43980201  0.72518350     0.36800
H1371       H  0.00627314  0.48599915  0.67072755     0.17200
O1372       O  0.04299188  0.45810282  0.63654232    -0.59700
H1373       H  0.06095601  0.40629344  0.72083122     0.17200
O1374       O  0.02409694  0.43375818  0.75433751    -0.59800
H1375       H  0.00595090  0.42173728  0.75498180     0.44200
H1376       H  0.05856524  0.47332324  0.63643039     0.44100
C1377       C  0.65483341  0.49363528  0.25174086    -0.04900
C1378       C  0.63837494  0.48719383  0.22653534    -0.32400
C1379       C  0.60759305  0.48627035  0.22751222     0.36900
C1380       C  0.59265062  0.49186615  0.25414941    -0.05300
C1381       C  0.60932975  0.49788566  0.27940558    -0.32300
C1382       C  0.64000462  0.49844744  0.27843977     0.36800
H1383       H  0.64940536  0.48312650  0.20587494     0.17200
O1384       O  0.59245351  0.47860415  0.20262633    -0.59700
H1385       H  0.59857611  0.50248103  0.30008526     0.17200
O1386       O  0.65529617  0.50345552  0.30387932    -0.59800
H1387       H  0.65980857  0.48368320  0.31179032     0.44200
H1388       H  0.59539438  0.49508137  0.18869131     0.44100
C1389       C  0.75768417  0.39761050  0.50095850    -0.04900
C1390       C  0.76080096  0.38376451  0.47354853    -0.32400
C1391       C  0.76091614  0.35303505  0.47105655     0.36900
C1392       C  0.75806021  0.33530147  0.49625255    -0.05300
C1393       C  0.75508314  0.34905178  0.52370259    -0.32300
C1394       C  0.75490140  0.37980415  0.52619920     0.36800
H1395       H  0.76312239  0.39684083  0.45383778     0.17200
O1396       O  0.76524605  0.34051897  0.44402272    -0.59700
H1397       H  0.75278477  0.33586832  0.54335258     0.17200
O1398       O  0.75262357  0.39215209  0.55353855    -0.59800
H1399       H  0.77312319  0.39439008  0.56051864     0.44200
H1400       H  0.74655833  0.34342473  0.43323784     0.44100
C1401       C  0.85544425  0.50260662  0.74647695    -0.04900
C1402       C  0.87027805  0.52953937  0.74924900    -0.32400
C1403       C  0.90107251  0.53085889  0.74861351     0.36900
C1404       C  0.91766623  0.50487348  0.74548251    -0.05300
C1405       C  0.90273749  0.47808496  0.74210231    -0.32300
C1406       C  0.87210168  0.47686733  0.74201240     0.36800
H1407       H  0.85799744  0.54967955  0.75222788     0.17200
O1408       O  0.91466685  0.55772940  0.74978898    -0.59700
H1409       H  0.91485874  0.45777449  0.73968604     0.17200
O1410       O  0.85873057  0.45033156  0.73710715    -0.59800
H1411       H  0.85478718  0.44980004  0.71571882     0.44200
H1412       H  0.91120407  0.56516743  0.76994562     0.44100
C1413       C  0.41484614  0.49558193  0.75305306    -0.04900
C1414       C  0.39719354  0.48847951  0.72883476    -0.32400
C1415       C  0.36660061  0.48715947  0.73144223     0.36900
C1416       C  0.35305525  0.49347743  0.75850308    -0.05300
C1417       C  0.37063861  0.50096094  0.78267828    -0.32300
C1418       C  0.40133535  0.50172654  0.78020331     0.36800
H1419       H  0.40719746  0.48364487  0.70782041     0.17200
O1420       O  0.35000633  0.48101911  0.70707453    -0.59700
H1421       H  0.36053192  0.50608448  0.80357589     0.17200
O1422       O  0.41788484  0.50974869  0.80404860    -0.59800
H1423       H  0.41773960  0.49244247  0.81725170     0.44200
H1424       H  0.35201097  0.45956001  0.70397643     0.44100
C1425       C  0.75175633  0.84422054  0.49918313    -0.04900
C1426       C  0.72611115  0.86013950  0.50546861    -0.32400
C1427       C  0.72588948  0.89092050  0.50478412     0.36900
C1428       C  0.75171859  0.90655255  0.49767680    -0.05300
C1429       C  0.77733843  0.89054652  0.49125182    -0.32300
C1430       C  0.77755910  0.85977397  0.49205723     0.36800
H1431       H  0.70605796  0.84864676  0.51109554     0.17200
O1432       O  0.70076368  0.90546418  0.51280192    -0.59700
H1433       H  0.79745961  0.90192461  0.48566586     0.17200
O1434       O  0.80353529  0.84519807  0.48756665    -0.59800
H1435       H  0.80782911  0.84738154  0.46634836     0.44200
H1436       H  0.68656308  0.90189167  0.49668470     0.44100
C1437       C  0.50679648  0.74252242  0.40293359    -0.04900
C1438       C  0.53216463  0.73904521  0.38564677    -0.32400
C1439       C  0.53099220  0.74133254  0.35487145     0.36900
C1440       C  0.50410942  0.74704797  0.34060274    -0.05300
C1441       C  0.47869086  0.75011538  0.35783061    -0.32300
C1442       C  0.47986909  0.74814107  0.38859822     0.36800
H1443       H  0.55310071  0.73477436  0.39608316     0.17200
O1444       O  0.55621280  0.73744765  0.33892839    -0.59700
H1445       H  0.45773508  0.75426664  0.34737171     0.17200
O1446       O  0.45431596  0.75041074  0.40437607    -0.59800
H1447       H  0.44856186  0.77137612  0.40313221     0.44200
H1448       H  0.55691412  0.71614406  0.33449710     0.44100
C1449       C  0.49634512  0.74012610  0.84097673    -0.04900
C1450       C  0.52318803  0.74510371  0.85536942    -0.32400
C1451       C  0.52497272  0.74496448  0.88607988     0.36900
C1452       C  0.49972091  0.73960232  0.90310551    -0.05300
C1453       C  0.47300155  0.73392176  0.88878000    -0.32300
C1454       C  0.47111360  0.73443538  0.85801244     0.36800
H1455       H  0.54283738  0.74949289  0.84271670     0.17200
O1456       O  0.55158320  0.74994657  0.89925473    -0.59700
H1457       H  0.45340929  0.72951213  0.90151858     0.17200
O1458       O  0.44477645  0.72826775  0.84476371    -0.59800
H1459       H  0.43260943  0.74610769  0.84752425     0.44200
H1460       H  0.55982528  0.73016903  0.90310316     0.44100
C1461       C  0.76086858  0.09394822  0.00527925    -0.04900
C1462       C  0.78586924  0.10957567  0.01431190    -0.32400
C1463       C  0.78577621  0.14032130  0.01537853     0.36900
C1464       C  0.76031502  0.15603557  0.00738940    -0.05300
C1465       C  0.73542501  0.14036429  0.99806554    -0.32300
C1466       C  0.73564858  0.10970208  0.99667244     0.36800
H1467       H  0.80555778  0.09790655  0.02077634     0.17200
O1468       O  0.81110530  0.15482594  0.02285981    -0.59700
H1469       H  0.71563432  0.15195622  0.99177330     0.17200
O1470       O  0.71121958  0.09540978  0.98637458    -0.59800
H1471       H  0.71468986  0.09283273  0.96505446     0.44200
H1472       H  0.81373202  0.15132363  0.04417520     0.44100
C1473       C  0.16811948  0.99160968  0.74715905    -0.04900
C1474       C  0.15253732  0.99667589  0.77331135    -0.32400
C1475       C  0.12177152  0.99572040  0.77397353     0.36900
C1476       C  0.10586998  0.98921074  0.74825361    -0.05300
C1477       C  0.12138919  0.98430164  0.72208581    -0.32300
C1478       C  0.15209446  0.98571051  0.72127263     0.36800
H1479       H  0.16420903  0.00131405  0.79348495     0.17200
O1480       O  0.10743428  0.00283629  0.79946602    -0.59700
H1481       H  0.10963462  0.97956561  0.70196736     0.17200
O1482       O  0.16608110  0.98301851  0.69473046    -0.59800
H1483       H  0.16283719  0.96241919  0.68843624     0.44200
H1484       H  0.11082001  0.98604993  0.81290138     0.44100
C1485       C  0.00729883  0.74232174  0.09552540    -0.04900
C1486       C  0.98056704  0.74724802  0.11005369    -0.32400
C1487       C  0.97924750  0.74878721  0.14075586     0.36900
C1488       C  0.00498216  0.74529962  0.15768746    -0.05300
C1489       C  0.03190835  0.74161865  0.14310689    -0.32300
C1490       C  0.03321363  0.74011245  0.11235901     0.36800
H1491       H  0.96044707  0.74951168  0.09757858     0.17200
O1492       O  0.95289004  0.75496763  0.15397611    -0.59700
H1493       H  0.05202061  0.73942943  0.15560406     0.17200
O1494       O  0.06004553  0.73769170  0.09889069    -0.59800
H1495       H  0.06675338  0.71736959  0.10288727     0.44200
H1496       H  0.94050637  0.73731569  0.15090029     0.44100
C1497       C  0.25107946  0.59577280  0.50480287    -0.04900
C1498       C  0.24820072  0.61243888  0.53063398    -0.32400
C1499       C  0.24797255  0.64325577  0.52984810     0.36900
C1500       C  0.25066317  0.65817785  0.50288213    -0.05300
C1501       C  0.25334288  0.64156709  0.47702151    -0.32300
C1502       C  0.25338868  0.61076804  0.47777465     0.36800
H1503       H  0.24614585  0.60153562  0.55165029     0.17200
O1504       O  0.24359546  0.65856839  0.55539499    -0.59700
H1505       H  0.25538644  0.65254764  0.45603841     0.17200
O1506       O  0.25499380  0.59562436  0.45182190    -0.59800
H1507       H  0.23436699  0.59097342  0.44662737     0.44200
H1508       H  0.26222927  0.65675061  0.56650518     0.44100
C1509       C  0.25336108  0.09074291  0.49684829    -0.04900
C1510       C  0.22812137  0.10605459  0.50588422    -0.32400
C1511       C  0.22745825  0.13678274  0.50605834     0.36900
C1512       C  0.25248036  0.15284183  0.49756379    -0.05300
C1513       C  0.27759955  0.13762490  0.48825415    -0.32300
C1514       C  0.27807032  0.10694727  0.48746938     0.36800
H1515       H  0.20876598  0.09421170  0.51298531     0.17200
O1516       O  0.20181484  0.15092027  0.51314340    -0.59700
H1517       H  0.29700122  0.14959904  0.48146509     0.17200
O1518       O  0.30263743  0.09312518  0.47690906    -0.59800
H1519       H  0.29860342  0.08966899  0.45581172     0.44200
H1520       H  0.19939673  0.14818498  0.53459040     0.44100
C1521       C  0.98789774  0.74368528  0.60125306    -0.04900
C1522       C  0.99260510  0.71677395  0.61560362    -0.32400
C1523       C  0.99234928  0.71492501  0.64629569     0.36900
C1524       C  0.98756086  0.74029096  0.66334625    -0.05300
C1525       C  0.98239199  0.76710506  0.64901345    -0.32300
C1526       C  0.98254781  0.76897423  0.61832656     0.36800
H1527       H  0.99664861  0.69705344  0.60295116     0.17200
O1528       O  0.99635242  0.68810639  0.65935702    -0.59700
H1529       H  0.97839462  0.78683278  0.66168174     0.17200
O1530       O  0.97606525  0.79532253  0.60523342    -0.59800
H1531       H  0.99326066  0.80813080  0.60907354     0.44200
H1532       H  0.97632560  0.67994143  0.66186950     0.44100
C1533       C  0.20227744  0.99514286  0.47592512    -0.04900
C1534       C  0.19305180  0.96992398  0.49108214    -0.32400
C1535       C  0.17208876  0.95098135  0.47902603     0.36900
C1536       C  0.15938162  0.95740641  0.45149499    -0.05300
C1537       C  0.16663836  0.98404934  0.43771452    -0.32300
C1538       C  0.18799303  0.00272409  0.44953989     0.36800
H1539       H  0.20305616  0.96416676  0.51186755     0.17200
O1540       O  0.16491817  0.92583219  0.49397640    -0.59700
H1541       H  0.15733989  0.98955268  0.41654358     0.17200
O1542       O  0.19674312  0.02672036  0.43359659    -0.59800
H1543       H  0.18053776  0.04113716  0.43550883     0.44200
H1544       H  0.18136839  0.91204037  0.49030060     0.44100
C1545       C  0.04820354  0.83100504  0.46794786    -0.04900
C1546       C  0.06308232  0.81800505  0.49171270    -0.32400
C1547       C  0.04848992  0.79898314  0.51097326     0.36900
C1548       C  0.01842768  0.79308035  0.50693689    -0.05300
C1549       C  0.00312135  0.80788207  0.48462203    -0.32300
C1550       C  0.01775319  0.82649809  0.46509766     0.36800
H1551       H  0.08651263  0.82114361  0.49437600     0.17200
O1552       O  0.06419576  0.78500179  0.53251177    -0.59700
H1553       H  0.97983004  0.80406745  0.48159434     0.17200
O1554       O  0.00209728  0.84007534  0.44325634    -0.59800
H1555       H  0.99895639  0.82479644  0.42807079     0.44200
H1556       H  0.07128908  0.76655514  0.52338786     0.44100
C1557       C  0.07116153  0.81319203  0.30022727    -0.04900
C1558       C  0.04100719  0.81817382  0.29579843    -0.32400
C1559       C  0.02551351  0.80340322  0.27402941     0.36900
C1560       C  0.03981632  0.78278551  0.25607920    -0.05300
C1561       C  0.07031101  0.77900065  0.25890069    -0.32300
C1562       C  0.08607288  0.79415616  0.28080332     0.36800
H1563       H  0.02902609  0.83332747  0.30966574     0.17200
O1564       O  0.99588616  0.80822350  0.27140049    -0.59700
H1565       H  0.08160963  0.76325874  0.24513036     0.17200
O1566       O  0.11566789  0.78943797  0.28357585    -0.59800
H1567       H  0.11750580  0.77253560  0.29716069     0.44200
H1568       H  0.99379501  0.82193130  0.25463267     0.44100
C1569       C  0.21389359  0.75211099  0.45759153    -0.04900
C1570       C  0.18536412  0.75911444  0.46646087    -0.32400
C1571       C  0.16871908  0.77958077  0.45076011     0.36900
C1572       C  0.18038693  0.79311954  0.42542394    -0.05300
C1573       C  0.20827225  0.78463493  0.41542719    -0.32300
C1574       C  0.22513431  0.76442034  0.43153548     0.36800
H1575       H  0.17656219  0.74989250  0.48653481     0.17200
O1576       O  0.14106630  0.78652181  0.46052568    -0.59700
H1577       H  0.21763870  0.79492676  0.39615841     0.17200
O1578       O  0.25320992  0.75818840  0.42265867    -0.59800
H1579       H  0.25196929  0.73863576  0.41316632     0.44200
H1580       H  0.14408475  0.80023128  0.47716558     0.44100
C1581       C  0.30514624  0.91907662  0.67934357    -0.04900
C1582       C  0.29363785  0.94547857  0.66835174    -0.32400
C1583       C  0.27341017  0.96172226  0.68457438     0.36900
C1584       C  0.26449754  0.95176172  0.71229849    -0.05300
C1585       C  0.27469080  0.92464080  0.72278788    -0.32300
C1586       C  0.29470976  0.90804447  0.70624676     0.36800
H1587       H  0.30110964  0.95404255  0.64745731     0.17200
O1588       O  0.26314810  0.98783260  0.67361834    -0.59700
H1589       H  0.26802490  0.91695689  0.74426878     0.17200
O1590       O  0.30568513  0.88243934  0.71761728    -0.59800
H1591       H  0.29232808  0.86684092  0.71039085     0.44200
H1592       H  0.27779556  0.00275887  0.67968652     0.44100
C1593       C  0.34531204  0.95907366  0.54755340    -0.04900
C1594       C  0.33583898  0.95234976  0.51894041    -0.32400
C1595       C  0.31525981  0.97010720  0.50451506     0.36900
C1596       C  0.30341230  0.99489927  0.51878023    -0.05300
C1597       C  0.31435503  0.00275542  0.54642389    -0.32300
C1598       C  0.33516451  0.98533228  0.56071707     0.36800
H1599       H  0.34352725  0.93265118  0.50807253     0.17200
O1600       O  0.30622864  0.96250090  0.47683367    -0.59700
H1601       H  0.30560655  0.02172768  0.55778224     0.17200
O1602       O  0.34362460  0.99318760  0.58850378    -0.59800
H1603       H  0.36050954  0.00664800  0.58572724     0.44200
H1604       H  0.31814090  0.97479870  0.46339756     0.44100
C1605       C  0.45835803  0.82495064  0.54270176    -0.04900
C1606       C  0.45786111  0.79502797  0.54952447    -0.32400
C1607       C  0.46945065  0.77420142  0.53021662     0.36900
C1608       C  0.48319692  0.78321816  0.50385184    -0.05300
C1609       C  0.48347726  0.81336515  0.49693190    -0.32300
C1610       C  0.47076775  0.83410349  0.51594946     0.36800
H1611       H  0.44707033  0.78755865  0.56936725     0.17200
O1612       O  0.46536356  0.74494895  0.53633294    -0.59700
H1613       H  0.49372754  0.82092446  0.47687751     0.17200
O1614       O  0.47049477  0.86317725  0.50817654    -0.59800
H1615       H  0.48867731  0.87154266  0.51674087     0.44200
H1616       H  0.47670827  0.74104267  0.55450045     0.44100
C1617       C  0.42512654  0.81327272  0.70313018    -0.04900
C1618       C  0.41529883  0.78489047  0.70997949    -0.32400
C1619       C  0.42990743  0.76803530  0.73124644     0.36900
C1620       C  0.45390836  0.77993395  0.74670806    -0.05300
C1621       C  0.46230324  0.80903040  0.74139910    -0.32300
C1622       C  0.44816920  0.82566704  0.71977911     0.36800
H1623       H  0.39761644  0.77505808  0.69747661     0.17200
O1624       O  0.42156598  0.73945857  0.73577659    -0.59700
H1625       H  0.48105814  0.81824798  0.75277579     0.17200
O1626       O  0.45792202  0.85361802  0.71419799    -0.59800
H1627       H  0.44410106  0.86670688  0.72474827     0.44200
H1628       H  0.43246763  0.72788144  0.72091510     0.44100
C1629       C  0.32341975  0.79776292  0.56744486    -0.04900
C1630       C  0.32811861  0.79344811  0.53722243    -0.32400
C1631       C  0.31129231  0.77345811  0.52120677     0.36900
C1632       C  0.28950148  0.75676693  0.53523637    -0.05300
C1633       C  0.28533243  0.75998007  0.56559332    -0.32300
C1634       C  0.30195959  0.78045534  0.58170229     0.36800
H1635       H  0.34469299  0.80596077  0.52563828     0.17200
O1636       O  0.31635034  0.77024498  0.49170131    -0.59700
H1637       H  0.26836991  0.74744540  0.57658107     0.17200
O1638       O  0.29646115  0.78384242  0.61107825    -0.59800
H1639       H  0.28109491  0.79921941  0.61226670     0.44200
H1640       H  0.30647637  0.78720488  0.48227879     0.44100
C1641       C  0.00572294  0.25876322  0.34601610    -0.04900
C1642       C  0.03241374  0.25860383  0.36152056    -0.32400
C1643       C  0.03296976  0.25987189  0.39220779     0.36900
C1644       C  0.00655589  0.26145472  0.40820159    -0.05300
C1645       C  0.97981169  0.26141580  0.39291929    -0.32300
C1646       C  0.97921046  0.26002206  0.36215667     0.36800
H1647       H  0.05308732  0.25764963  0.34982635     0.17200
O1648       O  0.05944141  0.25819102  0.40649416    -0.59700
H1649       H  0.95929926  0.26248221  0.40490050     0.17200
O1650       O  0.95252748  0.25932737  0.34823687    -0.59800
H1651       H  0.94866367  0.23826742  0.34430341     0.44200
H1652       H  0.06872500  0.27770578  0.40382467     0.44100
C1653       C  0.04664802  0.21692193  0.25212269    -0.04900
C1654       C  0.03593571  0.18929586  0.24406960    -0.32400
C1655       C  0.05031035  0.17260221  0.22270773     0.36900
C1656       C  0.07594814  0.18345681  0.20908114    -0.05300
C1657       C  0.08795139  0.21013633  0.21883026    -0.32300
C1658       C  0.07330583  0.22697543  0.24010257     0.36800
H1659       H  0.01542703  0.18137984  0.25316678     0.17200
O1660       O  0.03900613  0.14572487  0.21508181    -0.59700
H1661       H  0.10768854  0.21874147  0.20873432     0.17200
O1662       O  0.08407141  0.25409523  0.24750024    -0.59800
H1663       H  0.09697675  0.25057456  0.26466292     0.44200
H1664       H  0.02223088  0.15002748  0.20188823     0.44100
C1665       C  0.99398399  0.24812200  0.90349268    -0.04900
C1666       C  0.98754284  0.22163498  0.88897357    -0.32400
C1667       C  0.98876125  0.21961771  0.85831870     0.36900
C1668       C  0.99628817  0.24439761  0.84140132    -0.05300
C1669       C  0.00290976  0.27082509  0.85583132    -0.32300
C1670       C  0.00171043  0.27288730  0.88651995     0.36800
H1671       H  0.98147119  0.20233509  0.90146434     0.17200
O1672       O  0.98302771  0.19315105  0.84516020    -0.59700
H1673       H  0.00890764  0.29008130  0.84322544     0.17200
O1674       O  0.00955000  0.29879638  0.89973910    -0.59800
H1675       H  0.99341915  0.31272076  0.89525561     0.44200
H1676       H  0.00239691  0.18338318  0.84334081     0.44100
C1677       C  0.01906383  0.20416475  0.00189355    -0.04900
C1678       C  0.00349449  0.19121327  0.02518382    -0.32400
C1679       C  0.01763192  0.17278293  0.04538469     0.36900
C1680       C  0.04777792  0.16659702  0.04223202    -0.05300
C1681       C  0.06297148  0.17854087  0.01812015    -0.32300
C1682       C  0.04899035  0.19740740  0.99831645     0.36800
H1683       H  0.98041147  0.19609968  0.02820123     0.17200
O1684       O  0.00175266  0.16085181  0.06799816    -0.59700
H1685       H  0.08625126  0.17449748  0.01540333     0.17200
O1686       O  0.06521352  0.21038353  0.97652912    -0.59800
H1687       H  0.07152237  0.22955511  0.98470926     0.44200
H1688       H  0.00014880  0.17668793  0.08284552     0.44100
C1689       C  0.33279956  0.99742061  0.25286860    -0.04900
C1690       C  0.34872725  0.98963069  0.27815564    -0.32400
C1691       C  0.37954465  0.98868318  0.27805190     0.36900
C1692       C  0.39530063  0.99623681  0.25244902    -0.05300
C1693       C  0.37934243  0.00393049  0.22718310    -0.32300
C1694       C  0.34858361  0.00417664  0.22706818     0.36800
H1695       H  0.33729597  0.98418915  0.29825890     0.17200
O1696       O  0.39390990  0.97876974  0.30259625    -0.59700
H1697       H  0.39070952  0.00985821  0.20718101     0.17200
O1698       O  0.33422269  0.00937426  0.20110799    -0.59800
H1699       H  0.33823909  0.03022386  0.19625483     0.44200
H1700       H  0.39075399  0.99404225  0.31778719     0.44100
C1701       C  0.23641445  0.95601421  0.28819352    -0.04900
C1702       C  0.22679052  0.92890280  0.27709590    -0.32400
C1703       C  0.20637088  0.91185810  0.29279241     0.36900
C1704       C  0.19494675  0.92231508  0.31957446    -0.05300
C1705       C  0.20557698  0.94894083  0.33098976    -0.32300
C1706       C  0.22609121  0.96568491  0.31554647     0.36800
H1707       H  0.23421059  0.92154928  0.25574736     0.17200
O1708       O  0.19609177  0.88627060  0.28073039    -0.59700
H1709       H  0.19741386  0.95718025  0.35174864     0.17200
O1710       O  0.23534196  0.99199122  0.32694184    -0.59800
H1711       H  0.22079397  0.00665162  0.32006357     0.44200
H1712       H  0.21038303  0.87100579  0.28676122     0.44100
C1713       C  0.23635857  0.03993105  0.21970651    -0.04900
C1714       C  0.23006296  0.06864248  0.22906156    -0.32400
C1715       C  0.21007083  0.08623358  0.21335270     0.36900
C1716       C  0.19599213  0.07481388  0.18827819    -0.05300
C1717       C  0.20357243  0.04656473  0.17841973    -0.32300
C1718       C  0.22351183  0.02926658  0.19383814     0.36800
H1719       H  0.23965518  0.07690733  0.24918148     0.17200
O1720       O  0.20276996  0.11344723  0.22392131    -0.59700
H1721       H  0.19340238  0.03748146  0.15892438     0.17200
O1722       O  0.22918757  0.00127786  0.18427563    -0.59800
H1723       H  0.24728794  0.00292379  0.17230579     0.44200
H1724       H  0.21907339  0.12651561  0.21781611     0.44100
C1725       C  0.25607864  0.84357571  0.00823379    -0.04900
C1726       C  0.24723069  0.85867726  0.03355601    -0.32400
C1727       C  0.24692251  0.88942346  0.03423003     0.36900
C1728       C  0.25558143  0.90563728  0.00926699    -0.05300
C1729       C  0.26471103  0.89041685  0.98407966    -0.32300
C1730       C  0.26492042  0.85970801  0.98338913     0.36800
H1731       H  0.24042576  0.84656046  0.05284870     0.17200
O1732       O  0.23848675  0.90333889  0.05954151    -0.59700
H1733       H  0.27148510  0.90237848  0.96468390     0.17200
O1734       O  0.27502293  0.84562121  0.95876849    -0.59800
H1735       H  0.25920961  0.84779001  0.94396611     0.44200
H1736       H  0.25703255  0.90814564  0.06987582     0.44100
C1737       C  0.20486045  0.00111395  0.03158543    -0.04900
C1738       C  0.19341260  0.02512123  0.01600588    -0.32400
C1739       C  0.17293326  0.04408330  0.02884701     0.36900
C1740       C  0.16308474  0.03904207  0.05776292    -0.05300
C1741       C  0.17300163  0.01377850  0.07255952    -0.32300
C1742       C  0.19369457  0.99494248  0.05976551     0.36800
H1743       H  0.20114167  0.02981479  0.99402410     0.17200
O1744       O  0.16311102  0.06774314  0.01303257    -0.59700
H1745       H  0.16600994  0.00938852  0.09484733     0.17200
O1746       O  0.20469991  0.97210336  0.07601848    -0.59800
H1747       H  0.18916005  0.95684074  0.07575392     0.44200
H1748       H  0.17901450  0.08257009  0.01437671     0.44100
C1749       C  0.25273210  0.39841523  0.99293940    -0.04900
C1750       C  0.27847894  0.38150180  0.99101478    -0.32400
C1751       C  0.27760073  0.35083879  0.99320802     0.36900
C1752       C  0.25054474  0.33616254  0.99696851    -0.05300
C1753       C  0.22475901  0.35298051  0.99873887    -0.32300
C1754       C  0.22564407  0.38374706  0.99671075     0.36800
H1755       H  0.29953267  0.39211125  0.98788157     0.17200
O1756       O  0.30350304  0.33551439  0.99223415    -0.59700
H1757       H  0.20373729  0.34223317  0.00163027     0.17200
O1758       O  0.20007446  0.39931494  0.00000069    -0.59800
H1759       H  0.18869389  0.39571483  0.98179453     0.44200
H1760       H  0.30885511  0.33198543  0.01302403     0.44100
C1761       C  0.21242716  0.24352271  0.04457703    -0.04900
C1762       C  0.18377064  0.23612913  0.03641782    -0.32400
C1763       C  0.16739830  0.21614440  0.05303118     0.36900
C1764       C  0.17945963  0.20345062  0.07863718    -0.05300
C1765       C  0.20744342  0.21247469  0.08795810    -0.32300
C1766       C  0.22404841  0.23217994  0.07089934     0.36800
H1767       H  0.17463531  0.24464270  0.01617757     0.17200
O1768       O  0.13965106  0.20879542  0.04383453    -0.59700
H1769       H  0.21713674  0.20289260  0.10743033     0.17200
O1770       O  0.25226153  0.23873772  0.07908208    -0.59800
H1771       H  0.25050472  0.25608374  0.09210240     0.44200
H1772       H  0.14251360  0.19478339  0.02742289     0.44100
C1773       C  0.89592566  0.99533211  0.25023910    -0.04900
C1774       C  0.87870662  0.97024411  0.25545564    -0.32400
C1775       C  0.84787366  0.97191934  0.25570778     0.36900
C1776       C  0.83364988  0.99906906  0.25094194    -0.05300
C1777       C  0.85096143  0.02419100  0.24638455    -0.32300
C1778       C  0.88170588  0.02246548  0.24581192     0.36800
H1779       H  0.88921340  0.94920860  0.25902236     0.17200
O1780       O  0.83190501  0.94691313  0.26086089    -0.59700
H1781       H  0.84058889  0.04528480  0.24277525     0.17200
O1782       O  0.89775904  0.04767071  0.24200176    -0.59800
H1783       H  0.89587455  0.05257841  0.22088857     0.44200
H1784       H  0.82683578  0.94762977  0.28200280     0.44100
C1785       C  0.99242247  0.96903836  0.29838409    -0.04900
C1786       C  0.98562765  0.94117128  0.30952253    -0.32400
C1787       C  0.00420633  0.92726020  0.32972761     0.36900
C1788       C  0.03046604  0.94110950  0.33908610    -0.05300
C1789       C  0.03605821  0.96989103  0.32955121    -0.32300
C1790       C  0.01729561  0.98387648  0.30950844     0.36800
H1791       H  0.96662222  0.92941039  0.30137085     0.17200
O1792       O  0.99744284  0.89923114  0.33839466    -0.59700
H1793       H  0.05556210  0.98135046  0.33690562     0.17200
O1794       O  0.02328656  0.01217997  0.30103140    -0.59800
H1795       H  0.04183479  0.01114923  0.28967486     0.44200
H1796       H  0.98425383  0.90161411  0.35553452     0.44100
C1797       C  0.99232935  0.01863006  0.20094694    -0.04900
C1798       C  0.01755359  0.00483157  0.18966439    -0.32400
C1799       C  0.03750748  0.02017179  0.17187801     0.36900
C1800       C  0.03229492  0.04986864  0.16465095    -0.05300
C1801       C  0.00590044  0.06286495  0.17412645    -0.32300
C1802       C  0.98612746  0.04761961  0.19211970     0.36800
H1803       H  0.02248324  0.98235785  0.19569918     0.17200
O1804       O  0.06221547  0.00600504  0.16211090    -0.59700
H1805       H  0.00125464  0.08563044  0.16906718     0.17200
O1806       O  0.96230005  0.06228470  0.20322485    -0.59800
H1807       H  0.94775985  0.06270009  0.18703220     0.44200
H1808       H  0.07593036  0.00600807  0.17901716     0.44100
C1809       C  0.60461461  0.99962793  0.74998823    -0.04900
C1810       C  0.61937064  0.00285518  0.72308186    -0.32400
C1811       C  0.65007526  0.00136715  0.72137441     0.36900
C1812       C  0.66696825  0.99713241  0.74700862    -0.05300
C1813       C  0.65221288  0.99356594  0.77387878    -0.32300
C1814       C  0.62144995  0.99457515  0.77550514     0.36800
H1815       H  0.60707835  0.00656415  0.70308382     0.17200
O1816       O  0.66323182  0.00247406  0.69430796    -0.59700
H1817       H  0.66455102  0.99011786  0.79389363     0.17200
O1818       O  0.60804749  0.98902140  0.80188598    -0.59800
H1819       H  0.61237205  0.00633484  0.81436192     0.44200
H1820       H  0.66001651  0.02275021  0.68704671     0.44100
C1821       C  0.50703268  0.97308067  0.70509745    -0.04900
C1822       C  0.48278856  0.98793841  0.69311085    -0.32400
C1823       C  0.46424212  0.97424395  0.67276753     0.36900
C1824       C  0.46965944  0.94500102  0.66397406    -0.05300
C1825       C  0.49487779  0.93078460  0.67473175    -0.32300
C1826       C  0.51324875  0.94439694  0.69527349     0.36800
H1827       H  0.47785736  0.01017574  0.69996248     0.17200
O1828       O  0.44031853  0.98936952  0.66250450    -0.59700
H1829       H  0.49953956  0.90829614  0.66856932     0.17200
O1830       O  0.53626536  0.92875942  0.70675526    -0.59800
H1831       H  0.52858067  0.91989894  0.72508385     0.44200
H1832       H  0.44744708  0.00003315  0.64492934     0.44100
C1833       C  0.49103392  0.25303258  0.66130961    -0.04900
C1834       C  0.49888799  0.27788092  0.64478455    -0.32400
C1835       C  0.49891645  0.27711483  0.61397365     0.36900
C1836       C  0.49108392  0.25111617  0.59901833    -0.05300
C1837       C  0.48329180  0.22629215  0.61557125    -0.32300
C1838       C  0.48343540  0.22699625  0.64628575     0.36800
H1839       H  0.50500828  0.29805601  0.65579432     0.17200
O1840       O  0.50812633  0.30140376  0.59873144    -0.59700
H1841       H  0.47715113  0.20609485  0.60461511     0.17200
O1842       O  0.47676971  0.20179879  0.66135299    -0.59800
H1843       H  0.49595847  0.19242808  0.66557735     0.44200
H1844       H  0.49212963  0.31601596  0.60087892     0.44100
C1845       C  0.50125167  0.25204659  0.15376438    -0.04900
C1846       C  0.52895459  0.25255459  0.14009412    -0.32400
C1847       C  0.53156534  0.25370168  0.10938539     0.36900
C1848       C  0.50624403  0.25423744  0.09160314    -0.05300
C1849       C  0.47859220  0.25305619  0.10515057    -0.32300
C1850       C  0.47593780  0.25183999  0.13577901     0.36800
H1851       H  0.54874989  0.25243065  0.15326113     0.17200
O1852       O  0.55895997  0.25306293  0.09690233    -0.59700
H1853       H  0.45885413  0.25322144  0.09187851     0.17200
O1854       O  0.44840358  0.24999122  0.14780120    -0.59800
H1855       H  0.44458171  0.22868061  0.15007892     0.44200
H1856       H  0.56712603  0.27302995  0.09984855     0.44100
C1857       C  0.34260979  0.04000085  0.95240837    -0.04900
C1858       C  0.33491000  0.01256405  0.94043161    -0.32400
C1859       C  0.31527016  0.99371641  0.95487605     0.36900
C1860       C  0.30293829  0.00197679  0.98205380    -0.05300
C1861       C  0.31227584  0.02839854  0.99500085    -0.32300
C1862       C  0.33159496  0.04740467  0.98043062     0.36800
H1863       H  0.34281969  0.00625084  0.91893100     0.17200
O1864       O  0.30636593  0.96854281  0.94095109    -0.59700
H1865       H  0.30377025  0.03490275  0.01622010     0.17200
O1866       O  0.33902227  0.07342706  0.99364822    -0.59800
H1867       H  0.32216782  0.08673242  0.99002170     0.44200
H1868       H  0.32316414  0.95479006  0.94263193     0.44100
C1869       C  0.31469211  0.19759994  0.92662023    -0.04900
C1870       C  0.32876224  0.21753988  0.94545830    -0.32400
C1871       C  0.31246535  0.23733966  0.96231557     0.36900
C1872       C  0.28162788  0.23699007  0.96089490    -0.05300
C1873       C  0.26754371  0.21748504  0.94161663    -0.32300
C1874       C  0.28392594  0.19813525  0.92418612     0.36800
H1875       H  0.35246564  0.21728708  0.94757405     0.17200
O1876       O  0.32679155  0.25619179  0.98092797    -0.59700
H1877       H  0.24378868  0.21691681  0.94052698     0.17200
O1878       O  0.26961595  0.17839219  0.90654368    -0.59800
H1879       H  0.26806961  0.18818769  0.88718522     0.44200
H1880       H  0.32786760  0.24570597  0.99996155     0.44100
C1881       C  0.45136895  0.17558276  0.95282743    -0.04900
C1882       C  0.44955962  0.20578791  0.94752161    -0.32400
C1883       C  0.46234009  0.22593882  0.96677325     0.36900
C1884       C  0.47801706  0.21595174  0.99157149    -0.05300
C1885       C  0.47965854  0.18557972  0.99697871    -0.32300
C1886       C  0.46609672  0.16544510  0.97796893     0.36800
H1887       H  0.43728797  0.21388744  0.92881639     0.17200
O1888       O  0.45810626  0.25541539  0.96204119    -0.59700
H1889       H  0.49181310  0.17743573  0.01571074     0.17200
O1890       O  0.46823056  0.13593945  0.98352307    -0.59800
H1891       H  0.45201816  0.13155552  0.99735414     0.44200
H1892       H  0.46888177  0.26005696  0.94370491     0.44100
C1893       C  0.30383155  0.06749416  0.81695319    -0.04900
C1894       C  0.29889421  0.03796018  0.82444890    -0.32400
C1895       C  0.27926867  0.02064251  0.80849456     0.36900
C1896       C  0.26397699  0.03263504  0.78457488    -0.05300
C1897       C  0.26765304  0.06247251  0.77773654    -0.32300
C1898       C  0.28743846  0.07995232  0.79379066     0.36800
H1899       H  0.31066623  0.02802378  0.84256598     0.17200
O1900       O  0.27522679  0.99182808  0.81630819    -0.59700
H1901       H  0.25610679  0.07187648  0.75920572     0.17200
O1902       O  0.29139005  0.10873385  0.78590911    -0.59800
H1903       H  0.30789024  0.10855478  0.77171967     0.44200
H1904       H  0.29176679  0.98101393  0.80718753     0.44100
C1905       C  0.47044173  0.06101410  0.83519025    -0.04900
C1906       C  0.47090687  0.03018286  0.83473161    -0.32400
C1907       C  0.49024717  0.01499404  0.81629073     0.36900
C1908       C  0.50965833  0.03055960  0.79799166    -0.05300
C1909       C  0.51069631  0.06124247  0.79981200    -0.32300
C1910       C  0.49135813  0.07652920  0.81822520     0.36800
H1911       H  0.45548502  0.01776805  0.84790265     0.17200
O1912       O  0.48980966  0.98488110  0.81594707    -0.59700
H1913       H  0.52539087  0.07347564  0.78566425     0.17200
O1914       O  0.49146128  0.10663483  0.81744728    -0.59800
H1915       H  0.50684316  0.11265348  0.83162357     0.44200
H1916       H  0.47235250  0.97948159  0.80411284     0.44100
C1917       C  0.41065203  0.19200545  0.79603950    -0.04900
C1918       C  0.41392043  0.22223303  0.80077777    -0.32400
C1919       C  0.43164576  0.23921595  0.78214422     0.36900
C1920       C  0.44605217  0.22598664  0.75816843    -0.05300
C1921       C  0.44098473  0.19613341  0.75229859    -0.32300
C1922       C  0.42378790  0.17909141  0.77126714     0.36800
H1923       H  0.40431608  0.23231034  0.82004966     0.17200
O1924       O  0.43519569  0.26860254  0.78775147    -0.59700
H1925       H  0.45198352  0.18554857  0.73406812     0.17200
O1926       O  0.42121625  0.14948552  0.76633144    -0.59800
H1927       H  0.43851739  0.14051713  0.77604559     0.44200
H1928       H  0.44785338  0.26967628  0.80542757     0.44100
C1929       C  0.70396995  0.28922592  0.91921646    -0.04900
C1930       C  0.69046575  0.26306482  0.92859055    -0.32400
C1931       C  0.70427618  0.24451537  0.94893264     0.36900
C1932       C  0.73230221  0.25171421  0.96000700    -0.05300
C1933       C  0.74657521  0.27676146  0.94911037    -0.32300
C1934       C  0.73277978  0.29535430  0.92895417     0.36800
H1935       H  0.66838539  0.25777030  0.92151094     0.17200
O1936       O  0.68942677  0.22035100  0.95905052    -0.59700
H1937       H  0.76834357  0.28241153  0.95687029     0.17200
O1938       O  0.74733638  0.32009303  0.91986272    -0.59800
H1939       H  0.75865335  0.31390681  0.90234360     0.44200
H1940       H  0.67871467  0.22719921  0.97670721     0.44100
C1941       C  0.57361384  0.33293298  0.95435132    -0.04900
C1942       C  0.58745102  0.30968262  0.96916551    -0.32400
C1943       C  0.57295242  0.29419846  0.99127342     0.36900
C1944       C  0.54399553  0.30156180  0.99874617    -0.05300
C1945       C  0.53055403  0.32579298  0.98513740    -0.32300
C1946       C  0.54530578  0.34167504  0.96317132     0.36800
H1947       H  0.60928499  0.30273090  0.96275686     0.17200
O1948       O  0.58623471  0.27011626  0.00350894    -0.59700
H1949       H  0.50796461  0.33120435  0.99024751     0.17200
O1950       O  0.53114382  0.36423116  0.94914371    -0.59800
H1951       H  0.52043104  0.35488546  0.93265865     0.44200
H1952       H  0.59552335  0.27744178  0.02176938     0.44100
C1953       C  0.72428724  0.41169186  0.80597271    -0.04900
C1954       C  0.74713980  0.42528942  0.82180778    -0.32400
C1955       C  0.76616342  0.44525620  0.80819515     0.36900
C1956       C  0.76263870  0.45173206  0.77827366    -0.05300
C1957       C  0.74139923  0.43644355  0.76196047    -0.32300
C1958       C  0.72216554  0.41677511  0.77555052     0.36800
H1959       H  0.74913532  0.42198594  0.84525895     0.17200
O1960       O  0.78620117  0.46032155  0.82486974    -0.59700
H1961       H  0.73879574  0.44086217  0.73873988     0.17200
O1962       O  0.70101670  0.40314884  0.75898508    -0.59800
H1963       H  0.68559665  0.41819188  0.75579926     0.44200
H1964       H  0.80310265  0.44678647  0.82708880     0.44100
C1965       C  0.55796518  0.43059272  0.81654762    -0.04900
C1966       C  0.53898725  0.45077008  0.83017217    -0.32400
C1967       C  0.51741888  0.46558767  0.81384097     0.36900
C1968       C  0.51470086  0.46031142  0.78353531    -0.05300
C1969       C  0.53271093  0.43931437  0.77024475    -0.32300
C1970       C  0.55395227  0.42436289  0.78637987     0.36800
H1971       H  0.54145804  0.45576875  0.85326964     0.17200
O1972       O  0.50050885  0.48657168  0.82722123    -0.59700
H1973       H  0.53062248  0.43484241  0.74697640     0.17200
O1974       O  0.57088303  0.40389950  0.77219757    -0.59800
H1975       H  0.55890961  0.38571388  0.77211185     0.44200
H1976       H  0.48378681  0.47569410  0.83592419     0.44100
C1977       C  0.58739198  0.30302233  0.79193127    -0.04900
C1978       C  0.57719386  0.31803260  0.76689333    -0.32400
C1979       C  0.55467095  0.30643164  0.74933821     0.36900
C1980       C  0.54218669  0.27896207  0.75626992    -0.05300
C1981       C  0.55365980  0.26318308  0.78022987    -0.32300
C1982       C  0.57571330  0.27507367  0.79813331     0.36800
H1983       H  0.58556188  0.33967308  0.76171220     0.17200
O1984       O  0.54342746  0.32320721  0.72699991    -0.59700
H1985       H  0.54498938  0.24169237  0.78557413     0.17200
O1986       O  0.58564343  0.25915243  0.82165893    -0.59800
H1987       H  0.57067967  0.26197529  0.83721073     0.44200
H1988       H  0.55852081  0.32281265  0.71132561     0.44100
C1989       C  0.09223613  0.49784098  0.25885929    -0.04900
C1990       C  0.10674633  0.52427559  0.26544215    -0.32400
C1991       C  0.13740390  0.52638512  0.26396145     0.36900
C1992       C  0.15428767  0.50176830  0.25592987    -0.05300
C1993       C  0.13990291  0.47503164  0.25032097    -0.32300
C1994       C  0.10917912  0.47294520  0.25162172     0.36800
H1995       H  0.09423702  0.54365126  0.27122729     0.17200
O1996       O  0.15076036  0.55230635  0.27151726    -0.59700
H1997       H  0.15251751  0.45571759  0.24454203     0.17200
O1998       O  0.09599200  0.44625346  0.24692031    -0.59800
H1999       H  0.09852485  0.44215048  0.22570164     0.44200
H2000       H  0.14691236  0.56585650  0.25492831     0.44100
C2001       C  0.74164091  0.59919615  0.00390209    -0.04900
C2002       C  0.74246496  0.61394198  0.03098158    -0.32400
C2003       C  0.74327405  0.64470223  0.03241750     0.36900
C2004       C  0.74276236  0.66167708  0.00644946    -0.05300
C2005       C  0.74196285  0.64693404  0.97936119    -0.32300
C2006       C  0.74142205  0.61611184  0.97792391     0.36800
H2007       H  0.74268733  0.60152290  0.05124612     0.17200
O2008       O  0.74536688  0.65783593  0.05941465    -0.59700
H2009       H  0.74175597  0.65934164  0.95909171     0.17200
O2010       O  0.74235560  0.60274034  0.95097137    -0.59800
H2011       H  0.72274225  0.60611291  0.94213702     0.44200
H2012       H  0.76653639  0.66220454  0.06204005     0.44100
C2013       C  0.70660916  0.50250246  0.96172518    -0.04900
C2014       C  0.67638048  0.49801541  0.96604365    -0.32400
C2015       C  0.66134031  0.47589136  0.95047972     0.36900
C2016       C  0.67677559  0.45770232  0.93071966    -0.05300
C2017       C  0.70653467  0.46377299  0.92516888    -0.32300
C2018       C  0.72137043  0.48578329  0.94042956     0.36800
H2019       H  0.66484215  0.51050727  0.98265030     0.17200
O2020       O  0.63226159  0.47088498  0.95637029    -0.59700
H2021       H  0.71875725  0.45079312  0.90942829     0.17200
O2022       O  0.75069567  0.49028160  0.93508373    -0.59800
H2023       H  0.76100357  0.47382630  0.94493353     0.44200
H2024       H  0.62139826  0.48416752  0.94298763     0.44100
C2025       C  0.93724518  0.33770688  0.03734580    -0.04900
C2026       C  0.92244571  0.32726321  0.01231498    -0.32400
C2027       C  0.93620201  0.30786458  0.99273533     0.36900
C2028       C  0.96526934  0.29873109  0.99793660    -0.05300
C2029       C  0.98082234  0.31114093  0.02143989    -0.32300
C2030       C  0.96710835  0.33015956  0.04117962     0.36800
H2031       H  0.89953265  0.33258457  0.00883816     0.17200
O2032       O  0.92017103  0.29587299  0.97026738    -0.59700
H2033       H  0.00343142  0.30486778  0.02540366     0.17200
O2034       O  0.98295929  0.34045632  0.06463737    -0.59800
H2035       H  0.98343309  0.32402641  0.07892321     0.44200
H2036       H  0.91965380  0.31120809  0.95483110     0.44100
C2037       C  0.93163889  0.31926104  0.20514760    -0.04900
C2038       C  0.96237656  0.32214705  0.20387142    -0.32400
C2039       C  0.98046292  0.30865705  0.22446426     0.36900
C2040       C  0.96819703  0.29141488  0.24691092    -0.05300
C2041       C  0.93749072  0.28963806  0.24942150    -0.32300
C2042       C  0.91917343  0.30344485  0.22872749     0.36800
H2043       H  0.97269745  0.33482529  0.18661165     0.17200
O2044       O  0.01031955  0.31183103  0.22196580    -0.59700
H2045       H  0.92774532  0.27654240  0.26670629     0.17200
O2046       O  0.88931720  0.30075529  0.23145186    -0.59800
H2047       H  0.88415521  0.28277472  0.22031929     0.44200
H2048       H  0.01573068  0.32692705  0.23668380     0.44100
C2049       C  0.95847133  0.44494594  0.16925648    -0.04900
C2050       C  0.95603574  0.47522273  0.17428812    -0.32400
C2051       C  0.97519288  0.48944056  0.19369692     0.36900
C2052       C  0.99681111  0.47325404  0.20885023    -0.05300
C2053       C  0.00019350  0.44334367  0.20275238    -0.32300
C2054       C  0.98128563  0.42913483  0.18319596     0.36800
H2055       H  0.93882574  0.48775105  0.16368857     0.17200
O2056       O  0.97198515  0.51898452  0.19850936    -0.59700
H2057       H  0.01644479  0.43055435  0.21451155     0.17200
O2058       O  0.98356164  0.39925627  0.18010858    -0.59800
H2059       H  0.99944165  0.39620244  0.16555416     0.44200
H2060       H  0.98475656  0.52856991  0.18372553     0.44100
C2061       C  0.78223456  0.25212068  0.05752672    -0.04900
C2062       C  0.81147502  0.24713088  0.06606980    -0.32400
C2063       C  0.82600984  0.26705881  0.08453388     0.36900
C2064       C  0.81126698  0.29227946  0.09456593    -0.05300
C2065       C  0.78139580  0.29576976  0.08833632    -0.32300
C2066       C  0.76677849  0.27581540  0.07008769     0.36800
H2067       H  0.82368841  0.22897314  0.05675685     0.17200
O2068       O  0.85530715  0.26322121  0.09032147    -0.59700
H2069       H  0.76982638  0.31504200  0.09611669     0.17200
O2070       O  0.73754501  0.27994870  0.06402469    -0.59800
H2071       H  0.73649621  0.29817374  0.05215842     0.44200
H2072       H  0.85598625  0.25002412  0.10760948     0.44100
C2073       C  0.78307933  0.50149813  0.03823679    -0.04900
C2074       C  0.77171636  0.47656637  0.05243581    -0.32400
C2075       C  0.79023373  0.45580712  0.06533535     0.36900
C2076       C  0.82081931  0.46001594  0.06517769    -0.05300
C2077       C  0.83232636  0.48574630  0.05261382    -0.32300
C2078       C  0.81369618  0.50631084  0.03890161     0.36800
H2079       H  0.74824734  0.47264596  0.05270432     0.17200
O2080       O  0.77813813  0.43169520  0.07872735    -0.59700
H2081       H  0.85582435  0.48941386  0.05258468     0.17200
O2082       O  0.82576377  0.52987284  0.02458520    -0.59800
H2083       H  0.83001829  0.54446752  0.04015812     0.44200
H2084       H  0.77384110  0.41770902  0.06261539     0.44100
C2085       C  0.79569024  0.41902693  0.19213355    -0.04900
C2086       C  0.79527543  0.41952859  0.22283032    -0.32400
C2087       C  0.77393341  0.43588478  0.23771115     0.36900
C2088       C  0.75252657  0.45160148  0.22179140    -0.05300
C2089       C  0.75183438  0.44940786  0.19115834    -0.32300
C2090       C  0.77351080  0.43356464  0.17628654     0.36800
H2091       H  0.81241842  0.40860271  0.23517371     0.17200
O2092       O  0.77518199  0.43783758  0.26770604    -0.59700
H2093       H  0.73567216  0.46160964  0.17868230     0.17200
O2094       O  0.77336143  0.43300049  0.14619951    -0.59800
H2095       H  0.78390235  0.45104521  0.14007664     0.44200
H2096       H  0.76066944  0.42331763  0.27494488     0.44100
C2097       C  0.95584028  0.71476437  0.25178728    -0.04900
C2098       C  0.93779584  0.73131216  0.27053572    -0.32400
C2099       C  0.91811884  0.71754093  0.28972490     0.36900
C2100       C  0.91598042  0.68668737  0.29013517    -0.05300
C2101       C  0.93264790  0.67032219  0.26991050    -0.32300
C2102       C  0.95262727  0.68410029  0.25101624     0.36800
H2103       H  0.93977098  0.75502084  0.27103900     0.17200
O2104       O  0.90110624  0.73441470  0.30795058    -0.59700
H2105       H  0.93141515  0.64659902  0.26982623     0.17200
O2106       O  0.97064903  0.66726749  0.23376659    -0.59800
H2107       H  0.95885947  0.66258327  0.21608965     0.44200
H2108       H  0.91435577  0.74065272  0.32405706     0.44100
C2109       C  0.92686062  0.67386467  0.45781580    -0.04900
C2110       C  0.95074978  0.66156340  0.47303007    -0.32400
C2111       C  0.96487684  0.67733347  0.49543943     0.36900
C2112       C  0.95494240  0.70557118  0.50299077    -0.05300
C2113       C  0.93012998  0.71709745  0.48905644    -0.32300
C2114       C  0.91610233  0.70158511  0.46667077     0.36800
H2115       H  0.95926371  0.64028060  0.46671158     0.17200
O2116       O  0.98950760  0.66587566  0.50838230    -0.59700
H2117       H  0.92233355  0.73884679  0.49475297     0.17200
O2118       O  0.89173605  0.71368862  0.45372316    -0.59800
H2119       H  0.89939381  0.72859945  0.43983193     0.44200
H2120       H  0.98224156  0.65513521  0.52585533     0.44100
C2121       C  0.95358619  0.55934747  0.33471367    -0.04900
C2122       C  0.95822532  0.52943348  0.34021387    -0.32400
C2123       C  0.97889230  0.51370209  0.32367388     0.36900
C2124       C  0.99568785  0.52822696  0.30217942    -0.05300
C2125       C  0.99215009  0.55844159  0.29796203    -0.32300
C2126       C  0.97096883  0.57392988  0.31378269     0.36800
H2127       H  0.94470342  0.51798113  0.35606822     0.17200
O2128       O  0.98184018  0.48403934  0.32788237    -0.59700
H2129       H  0.00459999  0.56967122  0.28108907     0.17200
O2130       O  0.96677891  0.60320776  0.30812014    -0.59800
H2131       H  0.95458665  0.60379017  0.29011383     0.44200
H2132       H  0.96713862  0.47489331  0.31468284     0.44100
C2133       C  0.83543388  0.53643149  0.43985130    -0.04900
C2134       C  0.83849136  0.53514554  0.47040289    -0.32400
C2135       C  0.82279384  0.51432901  0.48677681     0.36900
C2136       C  0.80394337  0.49425152  0.47257527    -0.05300
C2137       C  0.80298583  0.49389759  0.44180887    -0.32300
C2138       C  0.81833873  0.51502180  0.42546810     0.36800
H2139       H  0.85155926  0.55147516  0.48173630     0.17200
O2140       O  0.82468314  0.51484524  0.51679161    -0.59700
H2141       H  0.78877678  0.47851267  0.43052359     0.17200
O2142       O  0.81600640  0.51505395  0.39545991    -0.59800
H2143       H  0.79756579  0.52577248  0.39113568     0.44200
H2144       H  0.84048415  0.50071201  0.52172261     0.44100
C2145       C  0.80477177  0.70184619  0.42224629    -0.04900
C2146       C  0.78905311  0.72547579  0.41021491    -0.32400
C2147       C  0.77602679  0.74656139  0.42862754     0.36900
C2148       C  0.77937671  0.74431242  0.45930661    -0.05300
C2149       C  0.79651414  0.72141998  0.47086558    -0.32300
C2150       C  0.80861791  0.70008375  0.45273253     0.36800
H2151       H  0.78630781  0.72715974  0.38666860     0.17200
O2152       O  0.75882973  0.76814136  0.41661386    -0.59700
H2153       H  0.80006210  0.71969081  0.49431528     0.17200
O2154       O  0.82518467  0.67808932  0.46495581    -0.59800
H2155       H  0.81084405  0.66298390  0.47130271     0.44200
H2156       H  0.77279635  0.78282447  0.40865993     0.44100
C2157       C  0.78682742  0.58264798  0.30791890    -0.04900
C2158       C  0.79204724  0.57700249  0.27811128    -0.32400
C2159       C  0.77317459  0.55891118  0.26208507     0.36900
C2160       C  0.74894047  0.54557647  0.27597508    -0.05300
C2161       C  0.74224756  0.55321834  0.30498247    -0.32300
C2162       C  0.76090100  0.57160637  0.32098351     0.36800
H2163       H  0.81142671  0.58573128  0.26744033     0.17200
O2164       O  0.77936555  0.55332519  0.23317650    -0.59700
H2165       H  0.72358691  0.54335456  0.31594999     0.17200
O2166       O  0.75444687  0.57704266  0.34987676    -0.59800
H2167       H  0.76283376  0.56024556  0.36089087     0.44200
H2168       H  0.76668620  0.56696296  0.22191970     0.44100
C2169       C  0.54829150  0.55773095  0.66561591    -0.04900
C2170       C  0.52894974  0.57304148  0.68412466    -0.32400
C2171       C  0.50760046  0.55805007  0.70039552     0.36900
C2172       C  0.50604583  0.52725373  0.69892929    -0.05300
C2173       C  0.52406993  0.51218779  0.67892826    -0.32300
C2174       C  0.54503664  0.52725428  0.66222073     0.36800
H2175       H  0.53127912  0.59656050  0.68692735     0.17200
O2176       O  0.49042153  0.57334188  0.71980025    -0.59700
H2177       H  0.52319910  0.48844186  0.67774518     0.17200
O2178       O  0.56374248  0.51175253  0.64445631    -0.59800
H2179       H  0.57991268  0.50519494  0.65747538     0.44200
H2180       H  0.47278490  0.57912333  0.70842541     0.44100
C2181       C  0.72453238  0.75072212  0.55195396    -0.04900
C2182       C  0.69509827  0.75555481  0.55937153    -0.32400
C2183       C  0.67989326  0.73534359  0.57689723     0.36900
C2184       C  0.69428915  0.70989800  0.58739699    -0.05300
C2185       C  0.72453865  0.70679700  0.58227482    -0.32300
C2186       C  0.73966938  0.72703015  0.56494955     0.36800
H2187       H  0.68322003  0.77374013  0.54968943     0.17200
O2188       O  0.65054302  0.73977591  0.58191535    -0.59700
H2189       H  0.73630203  0.68786270  0.59056770     0.17200
O2190       O  0.76883750  0.72226516  0.55909606    -0.59800
H2191       H  0.77959674  0.73623869  0.57185214     0.44200
H2192       H  0.64039827  0.73113507  0.56470021     0.44100
C2193       C  0.68555271  0.53753034  0.56994140    -0.04900
C2194       C  0.67359359  0.52113608  0.54665483    -0.32400
C2195       C  0.69042630  0.49958517  0.53225366     0.36900
C2196       C  0.71958728  0.49422568  0.54106167    -0.05300
C2197       C  0.73081086  0.50923195  0.56543383    -0.32300
C2198       C  0.71399282  0.53034996  0.58007208     0.36800
H2199       H  0.65169995  0.52595575  0.53872693     0.17200
O2200       O  0.67896777  0.48548304  0.50827711    -0.59700
H2201       H  0.75314546  0.50519844  0.57257835     0.17200
O2202       O  0.72587869  0.54430786  0.60395599    -0.59800
H2203       H  0.72119904  0.53148936  0.62091598     0.44200
H2204       H  0.67024703  0.46713931  0.51610211     0.44100
C2205       C  0.71307886  0.57800654  0.69230778    -0.04900
C2206       C  0.71243711  0.54780449  0.68691825    -0.32400
C2207       C  0.73360200  0.52930892  0.69899053     0.36900
C2208       C  0.75556555  0.54087318  0.71746898    -0.05300
C2209       C  0.75694178  0.57137354  0.72203007    -0.32300
C2210       C  0.73599132  0.59003779  0.70917103     0.36800
H2211       H  0.69559788  0.53852306  0.67288679     0.17200
O2212       O  0.73314053  0.49994796  0.69213101    -0.59700
H2213       H  0.77368364  0.58056725  0.73619953     0.17200
O2214       O  0.73731109  0.61968112  0.71420659    -0.59800
H2215       H  0.75089652  0.62742842  0.69908139     0.44200
H2216       H  0.71541900  0.49188363  0.70188330     0.44100
C2217       C  0.53916274  0.69045896  0.49645507    -0.04900
C2218       C  0.52352079  0.67785381  0.51996253    -0.32400
C2219       C  0.53773551  0.66057604  0.54103671     0.36900
C2220       C  0.56791695  0.65485693  0.53848306    -0.05300
C2221       C  0.58313053  0.66530126  0.51376865    -0.32300
C2222       C  0.56895992  0.68303290  0.49280198     0.36800
H2223       H  0.50056267  0.68322512  0.52316180     0.17200
O2224       O  0.52230495  0.65075066  0.56494650    -0.59700
H2225       H  0.60650316  0.66137551  0.51176991     0.17200
O2226       O  0.58494012  0.69475249  0.47016460    -0.59800
H2227       H  0.59365421  0.71304227  0.47814310     0.44200
H2228       H  0.52342369  0.66689666  0.57950669     0.44100
C2229       C  0.57731942  0.68410341  0.70324539    -0.04900
C2230       C  0.54716636  0.68243646  0.69749938    -0.32400
C2231       C  0.52671654  0.69460632  0.71684455     0.36900
C2232       C  0.53630489  0.70948974  0.74226280    -0.05300
C2233       C  0.56655387  0.71033980  0.74854159    -0.32300
C2234       C  0.58701838  0.69756678  0.72930107     0.36800
H2235       H  0.53934179  0.67104528  0.67813165     0.17200
O2236       O  0.49729638  0.69088547  0.71136009    -0.59700
H2237       H  0.57439143  0.72165361  0.76792416     0.17200
O2238       O  0.61637590  0.69889641  0.73581813    -0.59800
H2239       H  0.62333015  0.71756473  0.72703678     0.44200
H2240       H  0.49316098  0.70231000  0.69330106     0.44100
loop_ 
_geom_bond_atom_site_label_1 
_geom_bond_atom_site_label_2 
_geom_bond_distance 
_geom_bond_site_symmetry_2 
_ccdc_geom_bond_type 
O1           C17   1.278       .  A
O1           Zn7   2.035       .  S
C2           O18   1.276       .  A
C2           O15   1.277       .  A
C2         C2184   1.485       .  S
O3           C16   1.279       .  A
O3          Cd10   2.103       .  S
O4           C22   1.277       .  A
O4          Cd13   2.071       .  S
O5           C19   1.276       .  A
O5           Cd9   2.076       .  S
O6           C17   1.274       .  A
O6           Cd9   2.071       .  S
Zn7          O18   2.025       .  S
Zn7          O20   2.019       .  S
Zn7          O12   1.915       .  S
O8           C19   1.271       .  A
O8          Cd13   2.065       .  S
Cd9          O11   2.056       .  S
Cd9          O12   1.976       .  S
Cd10         O14   2.096       .  S
Cd10         O23   2.105       .  S
Cd10         O12   2.008       .  S
O11          C21   1.274       .  A
O12         Cd13   1.976       .  S
Cd13         O15   2.063       .  S
O14          C21   1.279       .  A
C16          O20   1.275       .  A
C16        C2220   1.477       .  S
C17        C2229   1.474       .  S
C19        C2205   1.466       .  S
C21        C2169   1.473       .  S
C22          O23   1.280       .  A
C22        C2193   1.490       .  S
O24          C40   1.279       .  A
O24         Zn30   2.029       .  S
C25          O41   1.274       .  A
C25          O38   1.275       .  A
C25        C2100   1.484       .  S
O26          C39   1.277       .  A
O26         Cd33   2.080       .  S
O27          C45   1.275       .  A
O27         Cd36   2.057       .  S
O28          C42   1.276       .  A
O28         Cd32   2.068       .  S
O29          C40   1.273       .  A
O29         Cd32   2.047       .  S
Zn30         O41   2.020       .  S
Zn30         O43   2.005       .  S
Zn30         O35   1.914       .  S
O31          C42   1.272       .  A
O31         Cd36   2.066       .  S
Cd32         O34   2.065       .  S
Cd32         O35   1.966       .  S
Cd33         O37   2.097       .  S
Cd33         O46   2.091       .  S
Cd33         O35   2.004       .  S
O34          C44   1.274       .  A
O35         Cd36   1.980       .  S
Cd36         O38   2.073       .  S
O37          C44   1.277       .  A
C39          O43   1.275       .  A
C39        C2121   1.467       .  S
C40        C2157   1.480       .  S
C42        C2145   1.467       .  S
C44        C2133   1.476       .  S
C45          O46   1.279       .  A
C45        C2109   1.483       .  S
O47          C63   1.279       .  A
O47         Zn53   2.043       .  S
C48          O64   1.276       .  A
C48          O61   1.279       .  A
C48        C2076   1.481       .  S
O49          C62   1.276       .  A
O49         Cd56   2.078       .  S
O50          C68   1.275       .  A
O50         Cd59   2.062       .  S
O51          C65   1.273       .  A
O51         Cd55   2.047       .  S
O52          C63   1.272       .  A
O52         Cd55   2.044       .  S
Zn53         O64   2.037       .  S
Zn53         O66   2.007       .  S
Zn53         O58   1.929       .  S
O54          C65   1.279       .  A
O54         Cd59   2.091       .  S
Cd55         O57   2.046       .  S
Cd55         O58   1.963       .  S
Cd56         O60   2.094       .  S
Cd56         O69   2.093       .  S
Cd56         O58   2.007       .  S
O57          C67   1.273       .  A
O58         Cd59   1.978       .  S
Cd59         O61   2.088       .  S
O60          C67   1.277       .  A
C62          O66   1.274       .  A
C62        C2085   1.467       .  S
C63        C2049   1.480       .  S
C65        C2025   1.487       .  S
C67        C2037   1.488       .  S
C68          O69   1.277       .  A
C68        C2064   1.469       .  S
C70        C2001   1.497       .  S
C70          C71   1.417       .  A
C70          C75   1.415   1_554  A
C71          C72   1.409       .  A
C71          H76   1.083       .  S
C72        C2073   1.492       .  S
C72          C73   1.399       .  A
C73          C74   1.396   1_554  A
C73          H77   1.085   1_554  S
C74        C2013   1.481       .  S
C74          C75   1.404       .  A
C75          H78   1.083       .  S
C79        C1989   1.490       .  S
C79          C80   1.410       .  A
C79          C84   1.410       .  A
C80          C81   1.405       .  A
C80          H85   1.083       .  S
C81        C2052   1.480   1_455  S
C81          C82   1.398   1_455  A
C82          C83   1.396   1_655  A
C82          H86   1.085       .  S
C83        C2124   1.471   1_455  S
C83          C84   1.401       .  A
C84          H87   1.084       .  S
O88         C104   1.280       .  A
O88         Zn94   2.049       .  S
C89         O105   1.279       .  A
C89         O102   1.275       .  A
C89        C1929   1.489       .  S
O90         C103   1.278       .  A
O90         Cd97   2.098       .  S
O91         C109   1.274       .  A
O91        Cd100   2.048       .  S
O92         C106   1.276       .  A
O92         Cd96   2.070       .  S
O93         C104   1.275       .  A
O93         Cd96   2.061       .  S
Zn94        O105   2.043       .  S
Zn94        O107   2.001       .  S
Zn94         O99   1.925       .  S
O95         C106   1.273       .  A
O95        Cd100   2.061       .  S
Cd96         O98   2.041       .  S
Cd96         O99   1.977       .  S
Cd97        O101   2.100       .  S
Cd97        O110   2.108       .  S
Cd97         O99   2.019       .  S
O98         C108   1.272       .  A
O99        Cd100   1.971       .  S
Cd100       O102   2.060       .  S
O101        C108   1.280       .  A
C103        O107   1.274       .  A
C103       C1941   1.479       .  S
C104       C1977   1.490       .  S
C106       C1953   1.483       .  S
C108       C1965   1.486       .  S
C109        O110   1.280       .  A
C109       C2016   1.487       .  S
O111        C127   1.275       .  A
O111       Zn117   2.022       .  S
C112        O128   1.274       .  A
C112        O125   1.279       .  A
C112       C1905   1.486       .  S
O113        C126   1.277       .  A
O113       Cd120   2.105       .  S
O114        C132   1.276       .  A
O114       Cd123   2.062       .  S
O115        C129   1.275       .  A
O115       Cd119   2.070       .  S
O116        C127   1.272       .  A
O116       Cd119   2.064       .  S
Zn117       O128   2.012       .  S
Zn117       O130   1.991       .  S
Zn117       O122   1.924       .  S
O118        C129   1.277       .  A
O118       Cd123   2.085       .  S
Cd119       O121   2.048       .  S
Cd119       O122   1.983       .  S
Cd120       O124   2.096       .  S
Cd120       O133   2.097       .  S
Cd120       O122   2.019       .  S
O121        C131   1.273       .  A
O122       Cd123   1.985       .  S
Cd123       O125   2.084       .  S
O124        C131   1.279       .  A
C126        O130   1.270       .  A
C126       C1917   1.471       .  S
C127       C1881   1.470       .  S
C129       C1857   1.494       .  S
C131       C1869   1.472       .  S
C132        O133   1.279       .  A
C132       C1893   1.485       .  S
C134       C1848   1.491       .  S
C134        C135   1.412       .  A
C134        C139   1.412       .  A
C135        C136   1.404       .  A
C135        H140   1.083       .  S
C136       C1944   1.475   1_554  S
C136        C137   1.395   1_554  A
C137        C138   1.399   1_556  A
C137        H141   1.084       .  S
C138       C1884   1.487   1_554  S
C138        C139   1.408       .  A
C139        H142   1.084       .  S
C143       C1833   1.493       .  S
C143        C144   1.408       .  A
C143        C148   1.411       .  A
C144        C145   1.402       .  A
C144        H149   1.083       .  S
C145       C1920   1.486       .  S
C145        C146   1.403       .  A
C146        C147   1.406       .  A
C146        H150   1.083       .  S
C147       C1980   1.495       .  S
C147        C148   1.409       .  A
C148        H151   1.083       .  S
C152       C1809   1.496   1_545  S
C152        C153   1.410   1_545  A
C152        C157   1.411       .  A
C153        C154   1.405       .  A
C153        H158   1.082       .  S
C154       C1821   1.490       .  S
C154        C155   1.402   1_565  A
C155        C156   1.401       .  A
C155        H159   1.084       .  S
C156       C1908   1.480       .  S
C156        C157   1.404       .  A
C157        H160   1.082       .  S
C161       C1773   1.492       .  S
C161        C162   1.410       .  A
C161        C166   1.410   1_565  A
C162        C163   1.410       .  A
C162        H167   1.084       .  S
C163       C1785   1.492       .  S
C163        C164   1.404       .  A
C164        C165   1.402   1_565  A
C164        H168   1.083   1_655  S
C165       C1797   1.493       .  S
C165        C166   1.407       .  A
C166        H169   1.083       .  S
C170       C1752   1.493       .  S
C170        C171   1.408       .  A
C170        C175   1.413   1_556  A
C171        C172   1.401       .  A
C171        H176   1.083       .  S
C172       C1872   1.477       .  S
C172        C173   1.399   1_556  A
C173        C174   1.401       .  A
C173        H177   1.085       .  S
C174       C1761   1.479       .  S
C174        C175   1.407       .  A
C175        H178   1.083       .  S
C179       C1728   1.487       .  S
C179        C180   1.406       .  A
C179        C184   1.409   1_554  A
C180        C181   1.403       .  A
C180        H185   1.083       .  S
C181       C1737   1.488   1_565  S
C181        C182   1.405       .  A
C182        C183   1.406   1_554  A
C182        H186   1.083   1_565  S
C183       C1860   1.495   1_565  S
C183        C184   1.406       .  A
C184        H187   1.082       .  S
C188       C1689   1.497       .  S
C188        C189   1.414       .  A
C188        C193   1.413   1_565  A
C189        C190   1.403       .  A
C189        H194   1.083       .  S
C190       C1701   1.476       .  S
C190        C191   1.397       .  A
C191        C192   1.397   1_565  A
C191        H195   1.085       .  S
C192       C1713   1.475       .  S
C192        C193   1.401       .  A
C193        H196   1.082       .  S
C197       C1665   1.493       .  S
C197        C198   1.411       .  A
C197        C202   1.411   1_655  A
C198        C199   1.405       .  A
C198        H203   1.082       .  S
C199       C2028   1.485       .  S
C199        C200   1.402       .  A
C200        C201   1.398   1_655  A
C200        H204   1.084   1_556  S
C201       C1677   1.485   1_556  S
C201        C202   1.405       .  A
C202        H205   1.083       .  S
C206       C1641   1.495       .  S
C206        C207   1.413   1_455  A
C206        C211   1.414       .  A
C207        C208   1.404       .  A
C207        H212   1.083       .  S
C208       C2040   1.482       .  S
C208        C209   1.400   1_655  A
C209        C210   1.395       .  A
C209        H213   1.085       .  S
C210       C1653   1.476       .  S
C210        C211   1.402       .  A
C211        H214   1.083       .  S
O215        C231   1.277       .  A
O215       Zn221   2.039       .  S
C216        O232   1.275       .  A
C216        O229   1.275       .  A
C216       C1740   1.488       .  S
O217        C230   1.279       .  A
O217       Cd224   2.105       .  S
O218        C236   1.272       .  A
O218       Cd227   2.048       .  S
O219        C233   1.279       .  A
O219       Cd223   2.089       .  S
O220        C231   1.276       .  A
O220       Cd223   2.075       .  S
Zn221       O232   2.018       .  S
Zn221       O234   1.989       .  S
Zn221       O226   1.931       .  S
O222        C233   1.275       .  A
O222       Cd227   2.060       .  S
Cd223       O225   2.058       .  S
Cd223       O226   1.984       .  S
Cd224       O228   2.099       .  S
Cd224       O237   2.119       .  S
Cd224       O226   2.027       .  S
O225        C235   1.275       .  A
O226       Cd227   1.980       .  S
Cd227       O229   2.068       .  S
O228        C235   1.279       .  A
C230        O234   1.273       .  A
C230       C1716   1.481       .  S
C231       C1800   1.493       .  S
C233       C1680   1.485       .  S
C235       C1656   1.481       .  S
C236        O237   1.281       .  A
C236       C1764   1.485       .  S
O238        C254   1.279       .  A
O238       Zn244   2.039       .  S
C239        O255   1.277       .  A
C239        O252   1.275       .  A
C239       C1824   1.488       .  S
O240        C253   1.277       .  A
O240       Cd247   2.097       .  S
O241        C259   1.273       .  A
O241       Cd250   2.042       .  S
O242        C256   1.276       .  A
O242       Cd246   2.080       .  S
O243        C254   1.274       .  A
O243       Cd246   2.069       .  S
Zn244       O255   2.031       .  S
Zn244       O257   2.009       .  S
Zn244       O249   1.925       .  S
O245        C256   1.273       .  A
O245       Cd250   2.059       .  S
Cd246       O248   2.055       .  S
Cd246       O249   1.989       .  S
Cd247       O251   2.100       .  S
Cd247       O260   2.093       .  S
Cd247       O249   2.021       .  S
O248        C258   1.275       .  A
O249       Cd250   1.975       .  S
Cd250       O252   2.064       .  S
O251        C258   1.279       .  A
C253        O257   1.273       .  A
C253       C1617   1.481       .  S
C254       C1605   1.474       .  S
C256       C1593   1.490       .  S
C258       C1629   1.491       .  S
C259        O260   1.278       .  A
C259       C1581   1.474       .  S
O261        C277   1.279       .  A
O261       Zn267   2.051       .  S
C262        O278   1.277       .  A
C262        O275   1.273       .  A
C262       C1536   1.485       .  S
O263        C276   1.279       .  A
O263       Cd270   2.098       .  S
O264        C282   1.272       .  A
O264       Cd273   2.042       .  S
O265        C279   1.276       .  A
O265       Cd269   2.075       .  S
O266        C277   1.273       .  A
O266       Cd269   2.058       .  S
Zn267       O278   2.028       .  S
Zn267       O280   2.008       .  S
Zn267       O272   1.932       .  S
O268        C279   1.273       .  A
O268       Cd273   2.059       .  S
Cd269       O271   2.046       .  S
Cd269       O272   1.975       .  S
Cd270       O274   2.104       .  S
Cd270       O283   2.115       .  S
Cd270       O272   2.023       .  S
O271        C281   1.275       .  A
O272       Cd273   1.977       .  S
Cd273       O275   2.052       .  S
O274        C281   1.279       .  A
C276        O280   1.275       .  A
C276       C1704   1.482       .  S
C277       C1788   1.492       .  S
C279       C1545   1.482       .  S
C281       C1557   1.488       .  S
C282        O283   1.281       .  A
C282       C1572   1.481       .  S
C284       C1521   1.490       .  S
C284        C285   1.412   1_655  A
C284        C289   1.411       .  A
C285        C286   1.405       .  A
C285        H290   1.082       .  S
C286       C1548   1.483       .  S
C286        C287   1.398   1_455  A
C287        C288   1.396       .  A
C287        H291   1.085       .  S
C288       C2112   1.474       .  S
C288        C289   1.402       .  A
C289        H292   1.084       .  S
C293       C1509   1.489       .  S
C293        C294   1.406       .  A
C293        C298   1.406       .  A
C294        C295   1.403       .  A
C294        H299   1.082       .  S
C295       C1533   1.488   1_545  S
C295        C296   1.405   1_545  A
C296        C297   1.403   1_565  A
C296        H300   1.083       .  S
C297       C1596   1.486   1_545  S
C297        C298   1.404       .  A
C298        H301   1.083       .  S
C302       C1500   1.493       .  S
C302        C303   1.413       .  A
C302        C307   1.412       .  A
C303        C304   1.405       .  A
C303        H308   1.083       .  S
C304       C1632   1.481       .  S
C304        C305   1.400       .  A
C305        C306   1.397       .  A
C305        H309   1.085       .  S
C306       C1569   1.477       .  S
C306        C307   1.404       .  A
C307        H310   1.084       .  S
C311       C1488   1.492       .  S
C311        C312   1.414       .  A
C311        C316   1.412   1_455  A
C312        C313   1.406       .  A
C312        H317   1.083       .  S
C313       C1560   1.481       .  S
C313        C314   1.399       .  A
C314        C315   1.395   1_455  A
C314        H318   1.085   1_455  S
C315       C2097   1.481       .  S
C315        C316   1.402       .  A
C316        H319   1.083       .  S
C320       C1473   1.493       .  S
C320        C321   1.414   1_565  A
C320        C325   1.410       .  A
C321        C322   1.405       .  A
C321        H326   1.083       .  S
C322       C1896   1.479       .  S
C322        C323   1.399   1_545  A
C323        C324   1.396       .  A
C323        H327   1.085       .  S
C324       C1584   1.471       .  S
C324        C325   1.398       .  A
C325        H328   1.082       .  S
C329       C1464   1.487       .  S
C329        C330   1.409       .  A
C329        C334   1.408   1_554  A
C330        C331   1.403       .  A
C330        H335   1.083       .  S
C331       C2061   1.486       .  S
C331        C332   1.404       .  A
C332        C333   1.403   1_554  A
C332        H336   1.083       .  S
C333       C1932   1.489       .  S
C333        C334   1.403       .  A
C334        H337   1.083       .  S
C338       C1449   1.491       .  S
C338        C339   1.412       .  A
C338        C343   1.412       .  A
C339        C340   1.407       .  A
C339        H344   1.084       .  S
C340       C2232   1.489       .  S
C340        C341   1.401       .  A
C341        C342   1.396       .  A
C341        H345   1.084       .  S
C342       C1620   1.478       .  S
C342        C343   1.404       .  A
C343        H346   1.083       .  S
C347       C1437   1.500       .  S
C347        C348   1.415       .  A
C347        C352   1.417       .  A
C348        C349   1.409       .  A
C348        H353   1.082       .  S
C349       C1608   1.497       .  S
C349        C350   1.399       .  A
C350        C351   1.398       .  A
C350        H354   1.083       .  S
C351       C2217   1.492       .  S
C351        C352   1.410       .  A
C352        H355   1.083       .  S
C356       C1425   1.490       .  S
C356        C357   1.413       .  A
C356        C361   1.413       .  A
C357        C358   1.405       .  A
C357        H362   1.082       .  S
C358       C2148   1.484       .  S
C358        C359   1.397       .  A
C359        C360   1.394       .  A
C359        H363   1.085       .  S
C360       C2181   1.481       .  S
C360        C361   1.403       .  A
C361        H364   1.083       .  S
C365       C1413   1.484       .  S
C365        C366   1.408       .  A
C365        C370   1.411       .  A
C366        C367   1.401       .  A
C366        H371   1.083       .  S
C367       C1968   1.477       .  S
C367        C368   1.398       .  A
C368        C369   1.398       .  A
C368        H372   1.085       .  S
C369       C2172   1.479       .  S
C369        C370   1.404       .  A
C370        H373   1.084       .  S
C374       C1401   1.490       .  S
C374        C375   1.412       .  A
C374        C379   1.412       .  A
C375        C376   1.405       .  A
C375        H380   1.083       .  S
C376       C2208   1.480       .  S
C376        C377   1.398       .  A
C377        C378   1.395       .  A
C377        H381   1.084       .  S
C378       C1956   1.480       .  S
C378        C379   1.401       .  A
C379        H382   1.082       .  S
C383       C1389   1.498       .  S
C383        C384   1.415       .  A
C383        C388   1.414       .  A
C384        C385   1.407       .  A
C384        H389   1.083       .  S
C385       C2196   1.484       .  S
C385        C386   1.400       .  A
C386        C387   1.400       .  A
C386        H390   1.085       .  S
C387       C2136   1.486       .  S
C387        C388   1.405       .  A
C388        H391   1.083       .  S
C392       C1377   1.485       .  S
C392        C393   1.408       .  A
C392        C397   1.409       .  A
C393        C394   1.402       .  A
C393        H398   1.084       .  S
C394       C2160   1.480       .  S
C394        C395   1.399       .  A
C395        C396   1.397       .  A
C395        H399   1.084       .  S
C396       C2088   1.475       .  S
C396        C397   1.403       .  A
C397        H400   1.083       .  S
O401        C417   1.275       .  A
O401       Zn407   2.023       .  S
C402        O418   1.278       .  A
C402        O415   1.273       .  A
C402       C1341   1.488       .  S
O403        C416   1.277       .  A
O403       Cd410   2.078       .  S
O404        C422   1.277       .  A
O404       Cd413   2.073       .  S
O405        C419   1.274       .  A
O405       Cd409   2.048       .  S
O406        C417   1.276       .  A
O406       Cd409   2.075       .  S
Zn407       O418   2.035       .  S
Zn407       O420   2.001       .  S
Zn407       O412   1.920       .  S
O408        C419   1.279       .  A
O408       Cd413   2.087       .  S
Cd409       O411   2.052       .  S
Cd409       O412   1.970       .  S
Cd410       O414   2.085       .  S
Cd410       O423   2.083       .  S
Cd410       O412   2.006       .  S
O411        C421   1.274       .  A
O412       Cd413   1.976       .  S
Cd413       O415   2.054       .  S
O414        C421   1.276       .  A
C416        O420   1.275       .  A
C416       C1368   1.481       .  S
C417       C1320   1.489       .  S
C419       C1353   1.481       .  S
C421       C1332   1.477       .  S
C422        O423   1.276       .  A
C422       C1305   1.478       .  S
O424        C440   1.275       .  A
O424       Zn430   2.023       .  S
C425        O441   1.277       .  A
C425        O438   1.272       .  A
C425       C1293   1.487       .  S
O426        C439   1.281       .  A
O426       Cd433   2.116       .  S
O427        C445   1.273       .  A
O427       Cd436   2.055       .  S
O428        C442   1.276       .  A
O428       Cd432   2.068       .  S
O429        C440   1.278       .  A
O429       Cd432   2.086       .  S
Zn430       O441   2.025       .  S
Zn430       O443   1.990       .  S
Zn430       O435   1.925       .  S
O431        C442   1.276       .  A
O431       Cd436   2.074       .  S
Cd432       O434   2.065       .  S
Cd432       O435   1.986       .  S
Cd433       O437   2.107       .  S
Cd433       O446   2.110       .  S
Cd433       O435   2.023       .  S
O434        C444   1.277       .  A
O435       Cd436   1.985       .  S
Cd436       O438   2.055       .  S
O437        C444   1.281       .  A
C439        O443   1.273       .  A
C439       C1257   1.491       .  S
C440       C1281   1.489       .  S
C442       C1233   1.487       .  S
C444       C1269   1.493       .  S
C445        O446   1.279       .  A
C445       C1248   1.478       .  S
C447       C1836   1.493       .  S
C447        C448   1.412       .  A
C447        C452   1.411       .  A
C448        C449   1.405       .  A
C448        H453   1.083       .  S
C449       C1284   1.485       .  S
C449        C450   1.400       .  A
C450        C451   1.402       .  A
C450        H454   1.084       .  S
C451       C1224   1.488       .  S
C451        C452   1.406       .  A
C452        H455   1.083       .  S
O456        C472   1.275       .  A
O456       Zn462   2.025       .  S
C457        O473   1.277       .  A
C457        O470   1.273       .  A
C457       C1197   1.480       .  S
O458        C471   1.276       .  A
O458       Cd465   2.087       .  S
O459        C477   1.274       .  A
O459       Cd468   2.049       .  S
O460        C474   1.274       .  A
O460       Cd464   2.067       .  S
O461        C472   1.276       .  A
O461       Cd464   2.069       .  S
Zn462       O473   2.033       .  S
Zn462       O475   2.000       .  S
Zn462       O467   1.928       .  S
O463        C474   1.275       .  A
O463       Cd468   2.061       .  S
Cd464       O466   2.067       .  S
Cd464       O467   1.982       .  S
Cd465       O469   2.090       .  S
Cd465       O478   2.105       .  S
Cd465       O467   2.005       .  S
O466        C476   1.276       .  A
O467       Cd468   1.972       .  S
Cd468       O470   2.051       .  S
O469        C476   1.278       .  A
C471        O475   1.273       .  A
C471       C1173   1.466       .  S
C472       C1209   1.480       .  S
C474       C1185   1.484       .  S
C476       C1221   1.470       .  S
C477        O478   1.279       .  A
C477       C1161   1.493       .  S
C479       C1380   1.494       .  S
C479        C480   1.409       .  A
C479        C484   1.413       .  A
C480        C481   1.404       .  A
C480        H485   1.081       .  S
C481       C1149   1.484       .  S
C481        C482   1.398       .  A
C482        C483   1.400       .  A
C482        H486   1.084       .  S
C483       C1176   1.485       .  S
C483        C484   1.405       .  A
C484        H487   1.083       .  S
C488       C1452   1.488       .  S
C488        C489   1.408       .  A
C488        C493   1.408       .  A
C489        C490   1.408       .  A
C489        H494   1.084       .  S
C490       C1137   1.491   1_556  S
C490        C491   1.404       .  A
C491        C492   1.403       .  A
C491        H495   1.083   1_556  S
C492       C1125   1.488       .  S
C492        C493   1.406       .  A
C493        H496   1.084       .  S
O497        C513   1.275       .  A
O497       Zn503   2.027       .  S
C498        O514   1.278       .  A
C498        O511   1.274       .  A
C498       C1152   1.482       .  S
O499        C512   1.279       .  A
O499       Cd506   2.102       .  S
O500        C518   1.274       .  A
O500       Cd509   2.059       .  S
O501        C515   1.273       .  A
O501       Cd505   2.061       .  S
O502        C513   1.276       .  A
O502       Cd505   2.073       .  S
Zn503       O514   2.033       .  S
Zn503       O516   2.012       .  S
Zn503       O508   1.929       .  S
O504        C515   1.277       .  A
O504       Cd509   2.089       .  S
Cd505       O507   2.047       .  S
Cd505       O508   1.973       .  S
Cd506       O510   2.090       .  S
Cd506       O519   2.101       .  S
Cd506       O508   2.017       .  S
O507        C517   1.275       .  A
O508       Cd509   1.984       .  S
Cd509       O511   2.044       .  S
O510        C517   1.278       .  A
C512        O516   1.275       .  A
C512       C1077   1.482       .  S
C513       C1092   1.488       .  S
C515       C1140   1.492       .  S
C517       C1101   1.479       .  S
C518        O519   1.279       .  A
C518       C1116   1.477       .  S
C520       C1497   1.496       .  S
C520        C521   1.413       .  A
C520        C525   1.416       .  A
C521        C522   1.402       .  A
C521        H526   1.083       .  S
C522       C1308   1.475       .  S
C522        C523   1.396       .  A
C523        C524   1.399       .  A
C523        H527   1.085       .  S
C524       C1164   1.484       .  S
C524        C525   1.407       .  A
C525        H528   1.083       .  S
O529        C545   1.276       .  A
O529       Zn535   2.023       .  S
C530        O546   1.280       .  A
C530        O543   1.274       .  A
C530       C1128   1.491       .  S
O531        C544   1.280       .  A
O531       Cd538   2.103       .  S
O532        C550   1.273       .  A
O532       Cd541   2.050       .  S
O533        C547   1.274       .  A
O533       Cd537   2.059       .  S
O534        C545   1.274       .  A
O534       Cd537   2.062       .  S
Zn535       O546   2.048       .  S
Zn535       O548   2.017       .  S
Zn535       O540   1.925       .  S
O536        C547   1.276       .  A
O536       Cd541   2.076       .  S
Cd537       O539   2.041       .  S
Cd537       O540   1.977       .  S
Cd538       O542   2.106       .  S
Cd538       O551   2.095       .  S
Cd538       O540   2.018       .  S
O539        C549   1.273       .  A
O540       Cd541   1.977       .  S
Cd541       O543   2.061       .  S
O542        C549   1.279       .  A
C544        O548   1.277       .  A
C544       C1053   1.493       .  S
C545       C1017   1.487       .  S
C547       C1044   1.483       .  S
C549       C1029   1.490       .  S
C550        O551   1.278       .  A
C550       C1065   1.471       .  S
C552       C2004   1.497       .  S
C552        C553   1.415   1_554  A
C552        C557   1.412       .  A
C553        C554   1.406       .  A
C553        H558   1.083       .  S
C554       C1005   1.482       .  S
C554        C555   1.399   1_556  A
C555        C556   1.397       .  A
C555        H559   1.085       .  S
C556       C1068   1.479       .  S
C556        C557   1.403       .  A
C557        H560   1.083       .  S
O561        C577   1.277       .  A
O561       Zn567   2.042       .  S
C562        O578   1.277       .  A
C562        O575   1.273       .  A
C562        C984   1.490       .  S
O563        C576   1.279       .  A
O563       Cd570   2.107       .  S
O564        C582   1.273       .  A
O564       Cd573   2.045       .  S
O565        C579   1.278       .  A
O565       Cd569   2.086       .  S
O566        C577   1.277       .  A
O566       Cd569   2.077       .  S
Zn567       O578   2.035       .  S
Zn567       O580   1.983       .  S
Zn567       O572   1.928       .  S
O568        C579   1.275       .  A
O568       Cd573   2.060       .  S
Cd569       O571   2.052       .  S
Cd569       O572   1.977       .  S
Cd570       O574   2.095       .  S
Cd570       O583   2.106       .  S
Cd570       O572   2.023       .  S
O571        C581   1.273       .  A
O572       Cd573   1.974       .  S
Cd573       O575   2.054       .  S
O574        C581   1.278       .  A
C576        O580   1.271       .  A
C576        C972   1.493       .  S
C577        C945   1.483       .  S
C579        C957   1.486       .  S
C581        C933   1.467       .  S
C582        O583   1.280       .  A
C582        C993   1.483       .  S
C584       C1812   1.496       .  S
C584        C585   1.415       .  A
C584        C589   1.413   1_565  A
C585        C586   1.405       .  A
C585        H590   1.083       .  S
C586        C921   1.483       .  S
C586        C587   1.398       .  A
C587        C588   1.396   1_565  A
C587        H591   1.085       .  S
C588        C996   1.477       .  S
C588        C589   1.401       .  A
C589        H592   1.082       .  S
O593        C609   1.274       .  A
O593       Zn599   2.020       .  S
C594        O610   1.276       .  A
C594        O607   1.276       .  A
C594        C873   1.490       .  S
O595        C608   1.280       .  A
O595       Cd602   2.105       .  S
O596        C614   1.271       .  A
O596       Cd605   2.041       .  S
O597        C611   1.274       .  A
O597       Cd601   2.073       .  S
O598        C609   1.274       .  A
O598       Cd601   2.059       .  S
Zn599       O610   2.025       .  S
Zn599       O612   1.996       .  S
Zn599       O604   1.921       .  S
O600        C611   1.275       .  A
O600       Cd605   2.068       .  S
Cd601       O603   2.043       .  S
Cd601       O604   1.982       .  S
Cd602       O606   2.111       .  S
Cd602       O615   2.096       .  S
Cd602       O604   2.023       .  S
O603        C613   1.272       .  A
O604       Cd605   1.977       .  S
Cd605       O607   2.073       .  S
O606        C613   1.281       .  A
C608        O612   1.274       .  A
C608        C924   1.489       .  S
C609        C885   1.484       .  S
C611        C897   1.473       .  S
C613       C1008   1.493       .  S
C614        O615   1.277       .  A
C614        C909   1.465       .  S
O616        C632   1.275       .  A
O616       Zn622   2.028       .  S
C617        O633   1.278       .  A
C617        O630   1.273       .  A
C617        C837   1.488       .  S
O618        C631   1.278       .  A
O618       Cd625   2.087       .  S
O619        C637   1.275       .  A
O619       Cd628   2.053       .  S
O620        C634   1.276       .  A
O620       Cd624   2.069       .  S
O621        C632   1.276       .  A
O621       Cd624   2.064       .  S
Zn622       O633   2.040       .  S
Zn622       O635   2.001       .  S
Zn622       O627   1.929       .  S
O623        C634   1.276       .  A
O623       Cd628   2.064       .  S
Cd624       O626   2.053       .  S
Cd624       O627   1.963       .  S
Cd625       O629   2.101       .  S
Cd625       O638   2.095       .  S
Cd625       O627   2.011       .  S
O626        C636   1.273       .  A
O627       Cd628   1.965       .  S
Cd628       O630   2.052       .  S
O629        C636   1.278       .  A
C631        O635   1.274       .  A
C631        C852   1.476       .  S
C632        C864   1.476       .  S
C634        C801   1.482       .  S
C636        C828   1.475       .  S
C637        O638   1.279       .  A
C637        C813   1.482       .  S
C639       C1524   1.488       .  S
C639        C640   1.408       .  A
C639        C644   1.412   1_655  A
C640        C641   1.400       .  A
C640        H645   1.084       .  S
C641        C912   1.482       .  S
C641        C642   1.398       .  A
C642        C643   1.405   1_655  A
C642        H646   1.083       .  S
C643        C861   1.497       .  S
C643        C644   1.409       .  A
C644        H647   1.081       .  S
C648       C1404   1.490       .  S
C648        C649   1.411       .  A
C648        C653   1.411       .  A
C649        C650   1.402       .  A
C649        H654   1.082       .  S
C650        C849   1.472   1_655  S
C650        C651   1.395   1_655  A
C651        C652   1.397   1_455  A
C651        H655   1.085       .  S
C652       C1365   1.473   1_655  S
C652        C653   1.400       .  A
C653        H656   1.083       .  S
C657       C1416   1.483       .  S
C657        C658   1.405       .  A
C657        C662   1.406       .  A
C658        C659   1.404       .  A
C658        H663   1.083       .  S
C659       C1344   1.487       .  S
C659        C660   1.402       .  A
C660        C661   1.404       .  A
C660        H664   1.082       .  S
C661        C840   1.488       .  S
C661        C662   1.406       .  A
C662        H665   1.083       .  S
C666       C1428   1.494       .  S
C666        C667   1.409       .  A
C666        C671   1.409       .  A
C667        C668   1.408       .  A
C667        H672   1.081       .  S
C668       C1296   1.494   1_565  S
C668        C669   1.404   1_565  A
C669        C670   1.402   1_545  A
C669        H673   1.082       .  S
C670        C981   1.489   1_565  S
C670        C671   1.405       .  A
C671        H674   1.083       .  S
C675       C1644   1.486       .  S
C675        C676   1.407       .  A
C675        C680   1.412   1_455  A
C676        C677   1.397       .  A
C676        H681   1.084       .  S
C677       C1329   1.472       .  S
C677        C678   1.399       .  A
C678        C679   1.404   1_455  A
C678        H682   1.084       .  S
C679        C948   1.497       .  S
C679        C680   1.412       .  A
C680        H683   1.082       .  S
C684       C1668   1.488       .  S
C684        C685   1.408   1_655  A
C684        C689   1.408       .  A
C685        C686   1.407       .  A
C685        H690   1.084       .  S
C686       C1317   1.491       .  S
C686        C687   1.403   1_455  A
C687        C688   1.403       .  A
C687        H691   1.082       .  S
C688        C936   1.485       .  S
C688        C689   1.404       .  A
C689        H692   1.083       .  S
C693       C1440   1.497       .  S
C693        C694   1.412       .  A
C693        C698   1.416       .  A
C694        C695   1.405       .  A
C694        H699   1.084       .  S
C695       C1113   1.482       .  S
C695        C696   1.398       .  A
C696        C697   1.402       .  A
C696        H700   1.085       .  S
C697       C1056   1.488       .  S
C697        C698   1.410       .  A
C698        H701   1.083       .  S
C702       C1776   1.494   1_545  S
C702        C703   1.414       .  A
C702        C707   1.413   1_545  A
C703        C704   1.406       .  A
C703        H708   1.083       .  S
C704       C1245   1.484       .  S
C704        C705   1.397       .  A
C705        C706   1.400   1_545  A
C705        H709   1.084       .  S
C706       C1032   1.483       .  S
C706        C707   1.405       .  A
C707        H710   1.083       .  S
C711       C1725   1.481       .  S
C711        C712   1.408       .  A
C711        C716   1.408   1_554  A
C712        C713   1.401       .  A
C712        H717   1.084       .  S
C713       C1104   1.474       .  S
C713        C714   1.399       .  A
C714        C715   1.399   1_554  A
C714        H718   1.084       .  S
C715        C804   1.484       .  S
C715        C716   1.402       .  A
C716        H719   1.083       .  S
C720       C1392   1.494       .  S
C720        C721   1.414       .  A
C720        C725   1.412       .  A
C721        C722   1.409       .  A
C721        H726   1.083       .  S
C722        C969   1.493       .  S
C722        C723   1.404       .  A
C723        C724   1.399       .  A
C723        H727   1.085       .  S
C724       C1260   1.481       .  S
C724        C725   1.402       .  A
C725        H728   1.083       .  S
C729       C1992   1.488       .  S
C729        C730   1.412       .  A
C729        C734   1.408       .  A
C730        C731   1.404       .  A
C730        H735   1.083       .  S
C731       C1080   1.478       .  S
C731        C732   1.398       .  A
C732        C733   1.401       .  A
C732        H736   1.084       .  S
C733       C1200   1.487       .  S
C733        C734   1.406       .  A
C734        H737   1.083       .  S
C738       C1749   1.496       .  S
C738        C739   1.416   1_556  A
C738        C743   1.413       .  A
C739        C740   1.408       .  A
C739        H744   1.083       .  S
C740       C1089   1.490       .  S
C740        C741   1.399   1_554  A
C741        C742   1.396       .  A
C741        H745   1.084       .  S
C742        C816   1.477       .  S
C742        C743   1.402       .  A
C743        H746   1.082       .  S
C747       C1692   1.497       .  S
C747        C748   1.410   1_565  A
C747        C752   1.410       .  A
C748        C749   1.407       .  A
C748        H753   1.080       .  S
C749       C1236   1.490       .  S
C749        C750   1.402   1_545  A
C750        C751   1.401       .  A
C750        H754   1.084       .  S
C751       C1020   1.487       .  S
C751        C752   1.404       .  A
C752        H755   1.082       .  S
C756       C1845   1.498       .  S
C756        C757   1.414       .  A
C756        C761   1.416       .  A
C757        C758   1.404       .  A
C757        H762   1.083       .  S
C758       C1212   1.482       .  S
C758        C759   1.398       .  A
C759        C760   1.397       .  A
C759        H763   1.085       .  S
C760       C1272   1.483       .  S
C760        C761   1.407       .  A
C761        H764   1.083       .  S
C765       C1512   1.483       .  S
C765        C766   1.407       .  A
C765        C770   1.406       .  A
C766        C767   1.403       .  A
C766        H771   1.083       .  S
C767       C1356   1.480       .  S
C767        C768   1.399       .  A
C768        C769   1.401       .  A
C768        H772   1.084       .  S
C769       C1188   1.479       .  S
C769        C770   1.402       .  A
C770        H773   1.084       .  S
C774       C1485   1.491       .  S
C774        C775   1.412   1_455  A
C774        C779   1.410       .  A
C775        C776   1.409       .  A
C775        H780   1.083       .  S
C776        C900   1.495   1_554  S
C776        C777   1.404   1_655  A
C777        C778   1.397       .  A
C777        H781   1.083   1_554  S
C778        C825   1.478       .  S
C778        C779   1.401       .  A
C779        H782   1.083       .  S
C783       C1461   1.485       .  S
C783        C784   1.406       .  A
C783        C788   1.406   1_554  A
C784        C785   1.403       .  A
C784        H789   1.083       .  S
C785       C1041   1.485   1_545  S
C785        C786   1.402   1_545  A
C786        C787   1.403   1_564  A
C786        H790   1.084       .  S
C787        C888   1.479   1_545  S
C787        C788   1.402       .  A
C788        H791   1.084       .  S
C792       C1476   1.489       .  S
C792        C793   1.411       .  A
C792        C797   1.407   1_565  A
C793        C794   1.407       .  A
C793        H798   1.082       .  S
C794        C876   1.489       .  S
C794        C795   1.403       .  A
C795        C796   1.400   1_565  A
C795        H799   1.084   1_455  S
C796        C960   1.481       .  S
C796        C797   1.400       .  A
C797        H800   1.083       .  S
C801        C802   1.404       .  A
C801        C806   1.413       .  A
C802        C803   1.399       .  A
C802        H807   1.084       .  S
C803        C804   1.411       .  A
C803        O808   1.374       .  S
C804        C805   1.403       .  A
C805        C806   1.400       .  A
C805        H809   1.083       .  S
C806        O810   1.371       .  S
O808        H812   0.992       .  S
O810        H811   0.992       .  S
C813        C814   1.406       .  A
C813        C818   1.411       .  A
C814        C815   1.393       .  A
C814        H819   1.084       .  S
C815        C816   1.405       .  A
C815        O820   1.372       .  S
C816        C817   1.405       .  A
C817        C818   1.407       .  A
C817        H821   1.083       .  S
C818        O822   1.371       .  S
O820        H824   0.992       .  S
O822        H823   0.992       .  S
C825        C826   1.399       .  A
C825        C830   1.411   1_554  A
C826        C827   1.398   1_554  A
C826        H831   1.084       .  S
C827        C828   1.409       .  A
C827        O832   1.372       .  S
C828        C829   1.403       .  A
C829        C830   1.405       .  A
C829        H833   1.084       .  S
C830        O834   1.372   1_455  S
O832        H836   0.992       .  S
O834        H835   0.992       .  S
C837        C838   1.410       .  A
C837        C842   1.410       .  A
C838        C839   1.400       .  A
C838        H843   1.083       .  S
C839        C840   1.407       .  A
C839        O844   1.372       .  S
C840        C841   1.407       .  A
C841        C842   1.401       .  A
C841        H845   1.084       .  S
C842        O846   1.372       .  S
O844        H848   0.992       .  S
O846        H847   0.992       .  S
C849        C850   1.399       .  A
C849        C854   1.407       .  A
C850        C851   1.398       .  A
C850        H855   1.084       .  S
C851        C852   1.412       .  A
C851        O856   1.372       .  S
C852        C853   1.402       .  A
C853        C854   1.401       .  A
C853        H857   1.083       .  S
C854        O858   1.371       .  S
O856        H860   0.991       .  S
O858        H859   0.991       .  S
C861        C862   1.407       .  A
C861        C866   1.416       .  A
C862        C863   1.393       .  A
C862        H867   1.083       .  S
C863        C864   1.406       .  A
C863        O868   1.373       .  S
C864        C865   1.404       .  A
C865        C866   1.409       .  A
C865        H869   1.083       .  S
C866        O870   1.371       .  S
O868        H872   0.992       .  S
O870        H871   0.992       .  S
C873        C874   1.410       .  A
C873        C878   1.412       .  A
C874        C875   1.404   1_655  A
C874        H879   1.083       .  S
C875        C876   1.409       .  A
C875        O880   1.372       .  S
C876        C877   1.405   1_455  A
C877        C878   1.398       .  A
C877        H881   1.084       .  S
C878        O882   1.371       .  S
O880        H884   0.992       .  S
O882        H883   0.992       .  S
C885        C886   1.406       .  A
C885        C890   1.415       .  A
C886        C887   1.398       .  A
C886        H891   1.083       .  S
C887        C888   1.407       .  A
C887        O892   1.372   1_556  S
C888        C889   1.401   1_565  A
C889        C890   1.400   1_545  A
C889        H893   1.084       .  S
C890        O894   1.372       .  S
O892        H896   0.992       .  S
O894        H895   0.992       .  S
C897        C898   1.399       .  A
C897        C902   1.406       .  A
C898        C899   1.397       .  A
C898        H903   1.084       .  S
C899        C900   1.414       .  A
C899        O904   1.374       .  S
C900        C901   1.410   1_556  A
C901        C902   1.406   1_554  A
C901        H905   1.083       .  S
C902        O906   1.371       .  S
O904        H908   0.992       .  S
O906        H907   0.992   1_556  S
C909        C910   1.400       .  A
C909        C914   1.406       .  A
C910        C911   1.402       .  A
C910        H915   1.084       .  S
C911        C912   1.412       .  A
C911        O916   1.373       .  S
C912        C913   1.402       .  A
C913        C914   1.399       .  A
C913        H917   1.084       .  S
C914        O918   1.371       .  S
O916        H920   0.992       .  S
O918        H919   0.991       .  S
C921        C922   1.405       .  A
C921        C926   1.407       .  A
C922        C923   1.409       .  A
C922        H927   1.083       .  S
C923        C924   1.413       .  A
C923        O928   1.371       .  S
C924        C925   1.407       .  A
C925        C926   1.393       .  A
C925        H929   1.084       .  S
C926        O930   1.373   1_565  S
O928        H932   0.992       .  S
O930        H931   0.992       .  S
C933        C934   1.400       .  A
C933        C938   1.406       .  A
C934        C935   1.402       .  A
C934        H939   1.084       .  S
C935        C936   1.412       .  A
C935        O940   1.373       .  S
C936        C937   1.405       .  A
C937        C938   1.401       .  A
C937        H941   1.084       .  S
C938        O942   1.371       .  S
O940        H944   0.992       .  S
O942        H943   0.992       .  S
C945        C946   1.404       .  A
C945        C950   1.409       .  A
C946        C947   1.410       .  A
C946        H951   1.083       .  S
C947        C948   1.414       .  A
C947        O952   1.372       .  S
C948        C949   1.407       .  A
C949        C950   1.398       .  A
C949        H953   1.083       .  S
C950        O954   1.372       .  S
O952        H956   0.992       .  S
O954        H955   0.992       .  S
C957        C958   1.407       .  A
C957        C962   1.413       .  A
C958        C959   1.402   1_655  A
C958        H963   1.083   1_655  S
C959        C960   1.408       .  A
C959        O964   1.372       .  S
C960        C961   1.402   1_455  A
C961        C962   1.399       .  A
C961        H965   1.084   1_545  S
C962        O966   1.372       .  S
O964        H968   0.992       .  S
O966        H967   0.992       .  S
C969        C970   1.402       .  A
C969        C974   1.412       .  A
C970        C971   1.394       .  A
C970        H975   1.084       .  S
C971        C972   1.416       .  A
C971        O976   1.372       .  S
C972        C973   1.408       .  A
C973        C974   1.410       .  A
C973        H977   1.083       .  S
C974        O978   1.371       .  S
O976        H980   0.992       .  S
O978        H979   0.992       .  S
C981        C982   1.406       .  A
C981        C986   1.409   1_545  A
C982        C983   1.402       .  A
C982        H987   1.083       .  S
C983        C984   1.411       .  A
C983        O988   1.372       .  S
C984        C985   1.410       .  A
C985        C986   1.401   1_545  A
C985        H989   1.083       .  S
C986        O990   1.372       .  S
O988        H992   0.992       .  S
O990        H991   0.992       .  S
C993        C994   1.406       .  A
C993        C998   1.414       .  A
C994        C995   1.408       .  A
C994        H999   1.083       .  S
C995        C996   1.409       .  A
C995       O1000   1.371       .  S
C996        C997   1.398       .  A
C997        C998   1.395       .  A
C997       H1001   1.084   1_545  S
C998       O1002   1.373       .  S
O1000      H1004   0.992       .  S
O1002      H1003   0.992       .  S
C1005      C1006   1.398       .  A
C1005      C1010   1.409       .  A
C1006      C1007   1.395       .  A
C1006      H1011   1.084   1_556  S
C1007      C1008   1.419       .  A
C1007      O1012   1.372       .  S
C1008      C1009   1.409       .  A
C1009      C1010   1.408       .  A
C1009      H1013   1.083       .  S
C1010      O1014   1.371       .  S
O1012      H1016   0.992       .  S
O1014      H1015   0.992       .  S
C1017      C1018   1.407       .  A
C1017      C1022   1.412       .  A
C1018      C1019   1.399       .  A
C1018      H1023   1.083       .  S
C1019      C1020   1.408       .  A
C1019      O1024   1.371       .  S
C1020      C1021   1.406       .  A
C1021      C1022   1.401       .  A
C1021      H1025   1.084   1_565  S
C1022      O1026   1.373       .  S
O1024      H1028   0.992       .  S
O1026      H1027   0.992       .  S
C1029      C1030   1.408       .  A
C1029      C1034   1.413       .  A
C1030      C1031   1.394       .  A
C1030      H1035   1.084       .  S
C1031      C1032   1.406       .  A
C1031      O1036   1.374   1_565  S
C1032      C1033   1.406       .  A
C1033      C1034   1.409       .  A
C1033      H1037   1.083       .  S
C1034      O1038   1.371       .  S
O1036      H1040   0.992       .  S
O1038      H1039   0.992       .  S
C1041      C1042   1.406       .  A
C1041      C1046   1.409   1_565  A
C1042      C1043   1.401       .  A
C1042      H1047   1.084   1_554  S
C1043      C1044   1.410       .  A
C1043      O1048   1.372       .  S
C1044      C1045   1.407       .  A
C1045      C1046   1.398   1_565  A
C1045      H1049   1.084       .  S
C1046      O1050   1.372       .  S
O1048      H1052   0.992       .  S
O1050      H1051   0.992       .  S
C1053      C1054   1.407       .  A
C1053      C1058   1.414       .  A
C1054      C1055   1.398       .  A
C1054      H1059   1.084       .  S
C1055      C1056   1.408       .  A
C1055      O1060   1.372       .  S
C1056      C1057   1.406       .  A
C1057      C1058   1.410       .  A
C1057      H1061   1.083       .  S
C1058      O1062   1.371       .  S
O1060      H1064   0.992       .  S
O1062      H1063   0.992       .  S
C1065      C1066   1.401       .  A
C1065      C1070   1.409       .  A
C1066      C1067   1.403       .  A
C1066      H1071   1.084       .  S
C1067      C1068   1.411       .  A
C1067      O1072   1.372       .  S
C1068      C1069   1.401       .  A
C1069      C1070   1.399       .  A
C1069      H1073   1.084       .  S
C1070      O1074   1.372       .  S
O1072      H1076   0.992       .  S
O1074      H1075   0.992       .  S
C1077      C1078   1.406       .  A
C1077      C1082   1.409       .  A
C1078      C1079   1.399       .  A
C1078      H1083   1.084       .  S
C1079      C1080   1.405       .  A
C1079      O1084   1.372       .  S
C1080      C1081   1.405       .  A
C1081      C1082   1.406       .  A
C1081      H1085   1.083       .  S
C1082      O1086   1.371       .  S
O1084      H1088   0.992       .  S
O1086      H1087   0.992       .  S
C1089      C1090   1.403       .  A
C1089      C1094   1.413       .  A
C1090      C1091   1.404       .  A
C1090      H1095   1.083       .  S
C1091      C1092   1.415       .  A
C1091      O1096   1.372       .  S
C1092      C1093   1.404       .  A
C1093      C1094   1.399       .  A
C1093      H1097   1.084       .  S
C1094      O1098   1.372   1_554  S
O1096      H1100   0.992       .  S
O1098      H1099   0.992       .  S
C1101      C1102   1.407       .  A
C1101      C1106   1.413       .  A
C1102      C1103   1.406       .  A
C1102      H1107   1.083       .  S
C1103      C1104   1.407       .  A
C1103      O1108   1.371       .  S
C1104      C1105   1.399       .  A
C1105      C1106   1.391       .  A
C1105      H1109   1.084       .  S
C1106      O1110   1.373       .  S
O1108      H1112   0.992       .  S
O1110      H1111   0.994       .  S
C1113      C1114   1.401       .  A
C1113      C1118   1.411       .  A
C1114      C1115   1.402       .  A
C1114      H1119   1.084       .  S
C1115      C1116   1.410       .  A
C1115      O1120   1.372       .  S
C1116      C1117   1.402       .  A
C1117      C1118   1.405       .  A
C1117      H1121   1.084       .  S
C1118      O1122   1.371       .  S
O1120      H1124   0.992       .  S
O1122      H1123   0.991       .  S
C1125      C1126   1.401       .  A
C1125      C1130   1.411   1_556  A
C1126      C1127   1.401   1_556  A
C1126      H1131   1.084       .  S
C1127      C1128   1.417       .  A
C1127      O1132   1.372       .  S
C1128      C1129   1.406       .  A
C1129      C1130   1.404       .  A
C1129      H1133   1.083       .  S
C1130      O1134   1.373       .  S
O1132      H1136   0.992       .  S
O1134      H1135   0.992       .  S
C1137      C1138   1.401   1_554  A
C1137      C1142   1.413       .  A
C1138      C1139   1.399   1_556  A
C1138      H1143   1.083       .  S
C1139      C1140   1.417       .  A
C1139      O1144   1.371       .  S
C1140      C1141   1.407       .  A
C1141      C1142   1.403       .  A
C1141      H1145   1.083       .  S
C1142      O1146   1.372       .  S
O1144      H1148   0.992   1_554  S
O1146      H1147   0.992       .  S
C1149      C1150   1.407       .  A
C1149      C1154   1.408       .  A
C1150      C1151   1.400       .  A
C1150      H1155   1.084       .  S
C1151      C1152   1.409       .  A
C1151      O1156   1.371       .  S
C1152      C1153   1.408       .  A
C1153      C1154   1.396       .  A
C1153      H1157   1.083       .  S
C1154      O1158   1.372       .  S
O1156      H1160   0.992       .  S
O1158      H1159   0.992       .  S
C1161      C1162   1.408       .  A
C1161      C1166   1.414       .  A
C1162      C1163   1.393       .  A
C1162      H1167   1.083       .  S
C1163      C1164   1.405       .  A
C1163      O1168   1.372       .  S
C1164      C1165   1.406       .  A
C1165      C1166   1.411       .  A
C1165      H1169   1.083       .  S
C1166      O1170   1.371       .  S
O1168      H1172   0.992       .  S
O1170      H1171   0.992       .  S
C1173      C1174   1.403       .  A
C1173      C1178   1.402       .  A
C1174      C1175   1.402       .  A
C1174      H1179   1.084       .  S
C1175      C1176   1.410       .  A
C1175      O1180   1.372       .  S
C1176      C1177   1.408       .  A
C1177      C1178   1.398       .  A
C1177      H1181   1.084       .  S
C1178      O1182   1.372       .  S
O1180      H1184   0.992       .  S
O1182      H1183   0.992       .  S
C1185      C1186   1.406       .  A
C1185      C1190   1.415       .  A
C1186      C1187   1.396       .  A
C1186      H1191   1.083       .  S
C1187      C1188   1.408       .  A
C1187      O1192   1.372       .  S
C1188      C1189   1.402       .  A
C1189      C1190   1.399       .  A
C1189      H1193   1.084       .  S
C1190      O1194   1.372       .  S
O1192      H1196   0.991       .  S
O1194      H1195   0.992       .  S
C1197      C1198   1.407       .  A
C1197      C1202   1.407       .  A
C1198      C1199   1.400       .  A
C1198      H1203   1.084       .  S
C1199      C1200   1.409       .  A
C1199      O1204   1.372       .  S
C1200      C1201   1.408       .  A
C1201      C1202   1.400       .  A
C1201      H1205   1.084       .  S
C1202      O1206   1.372       .  S
O1204      H1208   0.992       .  S
O1206      H1207   0.992       .  S
C1209      C1210   1.407       .  A
C1209      C1214   1.408       .  A
C1210      C1211   1.404       .  A
C1210      H1215   1.084       .  S
C1211      C1212   1.407       .  A
C1211      O1216   1.371       .  S
C1212      C1213   1.404       .  A
C1213      C1214   1.399       .  A
C1213      H1217   1.084       .  S
C1214      O1218   1.372       .  S
O1216      H1220   0.991       .  S
O1218      H1219   0.992       .  S
C1221      C1222   1.399       .  A
C1221      C1226   1.408       .  A
C1222      C1223   1.398       .  A
C1222      H1227   1.084       .  S
C1223      C1224   1.413       .  A
C1223      O1228   1.372       .  S
C1224      C1225   1.406       .  A
C1225      C1226   1.404       .  A
C1225      H1229   1.083       .  S
C1226      O1230   1.372       .  S
O1228      H1232   0.992       .  S
O1230      H1231   0.992       .  S
C1233      C1234   1.407       .  A
C1233      C1238   1.411       .  A
C1234      C1235   1.400       .  A
C1234      H1239   1.083       .  S
C1235      C1236   1.409       .  A
C1235      O1240   1.372       .  S
C1236      C1237   1.408       .  A
C1237      C1238   1.402       .  A
C1237      H1241   1.084   1_545  S
C1238      O1242   1.372       .  S
O1240      H1244   0.992       .  S
O1242      H1243   0.992       .  S
C1245      C1246   1.401       .  A
C1245      C1250   1.413       .  A
C1246      C1247   1.402       .  A
C1246      H1251   1.084       .  S
C1247      C1248   1.410       .  A
C1247      O1252   1.372       .  S
C1248      C1249   1.401       .  A
C1249      C1250   1.405       .  A
C1249      H1253   1.083       .  S
C1250      O1254   1.371       .  S
O1252      H1256   0.992       .  S
O1254      H1255   0.991       .  S
C1257      C1258   1.408       .  A
C1257      C1262   1.416       .  A
C1258      C1259   1.411       .  A
C1258      H1263   1.083       .  S
C1259      C1260   1.410       .  A
C1259      O1264   1.371       .  S
C1260      C1261   1.397       .  A
C1261      C1262   1.394       .  A
C1261      H1265   1.084       .  S
C1262      O1266   1.372       .  S
O1264      H1268   0.992       .  S
O1266      H1267   0.992       .  S
C1269      C1270   1.409       .  A
C1269      C1274   1.413       .  A
C1270      C1271   1.399       .  A
C1270      H1275   1.084       .  S
C1271      C1272   1.406       .  A
C1271      O1276   1.373       .  S
C1272      C1273   1.404       .  A
C1273      C1274   1.408       .  A
C1273      H1277   1.083       .  S
C1274      O1278   1.371       .  S
O1276      H1280   0.992       .  S
O1278      H1279   0.991       .  S
C1281      C1282   1.409       .  A
C1281      C1286   1.410       .  A
C1282      C1283   1.403       .  A
C1282      H1287   1.083       .  S
C1283      C1284   1.407       .  A
C1283      O1288   1.372       .  S
C1284      C1285   1.405       .  A
C1285      C1286   1.402       .  A
C1285      H1289   1.084       .  S
C1286      O1290   1.372       .  S
O1288      H1292   0.992       .  S
O1290      H1291   0.992       .  S
C1293      C1294   1.404       .  A
C1293      C1298   1.414       .  A
C1294      C1295   1.401       .  A
C1294      H1299   1.083       .  S
C1295      C1296   1.414       .  A
C1295      O1300   1.373       .  S
C1296      C1297   1.405   1_545  A
C1297      C1298   1.400   1_565  A
C1297      H1301   1.083       .  S
C1298      O1302   1.372       .  S
O1300      H1304   0.992       .  S
O1302      H1303   0.992       .  S
C1305      C1306   1.404       .  A
C1305      C1310   1.410       .  A
C1306      C1307   1.404       .  A
C1306      H1311   1.084       .  S
C1307      C1308   1.408       .  A
C1307      O1312   1.372       .  S
C1308      C1309   1.400       .  A
C1309      C1310   1.399       .  A
C1309      H1313   1.084       .  S
C1310      O1314   1.372       .  S
O1312      H1316   0.992       .  S
O1314      H1315   0.992       .  S
C1317      C1318   1.403       .  A
C1317      C1322   1.413       .  A
C1318      C1319   1.400       .  A
C1318      H1323   1.083       .  S
C1319      C1320   1.415       .  A
C1319      O1324   1.372       .  S
C1320      C1321   1.406       .  A
C1321      C1322   1.402       .  A
C1321      H1325   1.083       .  S
C1322      O1326   1.372       .  S
O1324      H1328   0.992       .  S
O1326      H1327   0.992       .  S
C1329      C1330   1.398       .  A
C1329      C1334   1.407       .  A
C1330      C1331   1.396       .  A
C1330      H1335   1.084       .  S
C1331      C1332   1.411       .  A
C1331      O1336   1.373       .  S
C1332      C1333   1.405       .  A
C1333      C1334   1.403       .  A
C1333      H1337   1.083       .  S
C1334      O1338   1.371       .  S
O1336      H1340   0.992       .  S
O1338      H1339   0.992       .  S
C1341      C1342   1.406       .  A
C1341      C1346   1.416       .  A
C1342      C1343   1.403       .  A
C1342      H1347   1.083       .  S
C1343      C1344   1.411       .  A
C1343      O1348   1.373       .  S
C1344      C1345   1.402       .  A
C1345      C1346   1.398       .  A
C1345      H1349   1.084       .  S
C1346      O1350   1.372       .  S
O1348      H1352   0.992       .  S
O1350      H1351   0.992       .  S
C1353      C1354   1.408       .  A
C1353      C1358   1.409       .  A
C1354      C1355   1.397       .  A
C1354      H1359   1.084       .  S
C1355      C1356   1.406       .  A
C1355      O1360   1.372       .  S
C1356      C1357   1.406       .  A
C1357      C1358   1.402       .  A
C1357      H1361   1.084       .  S
C1358      O1362   1.372       .  S
O1360      H1364   0.992       .  S
O1362      H1363   0.992       .  S
C1365      C1366   1.402       .  A
C1365      C1370   1.405       .  A
C1366      C1367   1.403       .  A
C1366      H1371   1.083       .  S
C1367      C1368   1.412       .  A
C1367      O1372   1.371       .  S
C1368      C1369   1.406       .  A
C1369      C1370   1.393       .  A
C1369      H1373   1.084       .  S
C1370      O1374   1.372       .  S
O1372      H1376   0.992       .  S
O1374      H1375   0.992       .  S
C1377      C1378   1.403       .  A
C1377      C1382   1.409       .  A
C1378      C1379   1.403       .  A
C1378      H1383   1.084       .  S
C1379      C1380   1.415       .  A
C1379      O1384   1.373       .  S
C1380      C1381   1.406       .  A
C1381      C1382   1.398       .  A
C1381      H1385   1.083       .  S
C1382      O1386   1.372       .  S
O1384      H1388   0.992       .  S
O1386      H1387   0.992       .  S
C1389      C1390   1.407       .  A
C1389      C1394   1.414       .  A
C1390      C1391   1.404       .  A
C1390      H1395   1.083       .  S
C1391      C1392   1.410       .  A
C1391      O1396   1.372       .  S
C1392      C1393   1.406       .  A
C1393      C1394   1.405       .  A
C1393      H1397   1.084       .  S
C1394      O1398   1.371       .  S
O1396      H1400   0.992       .  S
O1398      H1399   0.992       .  S
C1401      C1402   1.406       .  A
C1401      C1406   1.412       .  A
C1402      C1403   1.404       .  A
C1402      H1407   1.083       .  S
C1403      C1404   1.412       .  A
C1403      O1408   1.373       .  S
C1404      C1405   1.405       .  A
C1405      C1406   1.397       .  A
C1405      H1409   1.083       .  S
C1406      O1410   1.372       .  S
O1408      H1412   0.992       .  S
O1410      H1411   0.992       .  S
C1413      C1414   1.403       .  A
C1413      C1418   1.411       .  A
C1414      C1415   1.400       .  A
C1414      H1419   1.084       .  S
C1415      C1416   1.409       .  A
C1415      O1420   1.372       .  S
C1416      C1417   1.404       .  A
C1417      C1418   1.403       .  A
C1417      H1421   1.084       .  S
C1418      O1422   1.372       .  S
O1420      H1424   0.992       .  S
O1422      H1423   0.992       .  S
C1425      C1426   1.405       .  A
C1425      C1430   1.410       .  A
C1426      C1427   1.403       .  A
C1426      H1431   1.084       .  S
C1427      C1428   1.413       .  A
C1427      O1432   1.372       .  S
C1428      C1429   1.407       .  A
C1429      C1430   1.402       .  A
C1429      H1433   1.083       .  S
C1430      O1434   1.372       .  S
O1432      H1436   0.992       .  S
O1434      H1435   0.992       .  S
C1437      C1438   1.408       .  A
C1437      C1442   1.413       .  A
C1438      C1439   1.408       .  A
C1438      H1443   1.083       .  S
C1439      C1440   1.411       .  A
C1439      O1444   1.371       .  S
C1440      C1441   1.406       .  A
C1441      C1442   1.407       .  A
C1441      H1445   1.084       .  S
C1442      O1446   1.372       .  S
O1444      H1448   0.992       .  S
O1446      H1447   0.992       .  S
C1449      C1450   1.406       .  A
C1449      C1454   1.411       .  A
C1450      C1451   1.402       .  A
C1450      H1455   1.083       .  S
C1451      C1452   1.409       .  A
C1451      O1456   1.371       .  S
C1452      C1453   1.405       .  A
C1453      C1454   1.405       .  A
C1453      H1457   1.084       .  S
C1454      O1458   1.372       .  S
O1456      H1460   0.992       .  S
O1458      H1459   0.992       .  S
C1461      C1462   1.404       .  A
C1461      C1466   1.410   1_554  A
C1462      C1463   1.401       .  A
C1462      H1467   1.083       .  S
C1463      C1464   1.411       .  A
C1463      O1468   1.372       .  S
C1464      C1465   1.405   1_554  A
C1465      C1466   1.398       .  A
C1465      H1469   1.084       .  S
C1466      O1470   1.372       .  S
O1468      H1472   0.992       .  S
O1470      H1471   0.992       .  S
C1473      C1474   1.407       .  A
C1473      C1478   1.413       .  A
C1474      C1475   1.402       .  A
C1474      H1479   1.083   1_565  S
C1475      C1476   1.410       .  A
C1475      O1480   1.372   1_565  S
C1476      C1477   1.405       .  A
C1477      C1478   1.401       .  A
C1477      H1481   1.084       .  S
C1478      O1482   1.373       .  S
O1480      H1484   0.992   1_545  S
O1482      H1483   0.992       .  S
C1485      C1486   1.404   1_455  A
C1485      C1490   1.411       .  A
C1486      C1487   1.403       .  A
C1486      H1491   1.083       .  S
C1487      C1488   1.412   1_655  A
C1487      O1492   1.373       .  S
C1488      C1489   1.405       .  A
C1489      C1490   1.405       .  A
C1489      H1493   1.083       .  S
C1490      O1494   1.372       .  S
O1492      H1496   0.992       .  S
O1494      H1495   0.992       .  S
C1497      C1498   1.407       .  A
C1497      C1502   1.413       .  A
C1498      C1499   1.404       .  A
C1498      H1503   1.083       .  S
C1499      C1500   1.410       .  A
C1499      O1504   1.372       .  S
C1500      C1501   1.406       .  A
C1501      C1502   1.403       .  A
C1501      H1505   1.083       .  S
C1502      O1506   1.371       .  S
O1504      H1508   0.992       .  S
O1506      H1507   0.992       .  S
C1509      C1510   1.407       .  A
C1509      C1514   1.412       .  A
C1510      C1511   1.400       .  A
C1510      H1515   1.083       .  S
C1511      C1512   1.409       .  A
C1511      O1516   1.373       .  S
C1512      C1513   1.404       .  A
C1513      C1514   1.398       .  A
C1513      H1517   1.084       .  S
C1514      O1518   1.372       .  S
O1516      H1520   0.992       .  S
O1518      H1519   0.992       .  S
C1521      C1522   1.406       .  A
C1521      C1526   1.412       .  A
C1522      C1523   1.402       .  A
C1522      H1527   1.083       .  S
C1523      C1524   1.410       .  A
C1523      O1528   1.371       .  S
C1524      C1525   1.405       .  A
C1525      C1526   1.402       .  A
C1525      H1529   1.084       .  S
C1526      O1530   1.373       .  S
O1528      H1532   0.992       .  S
O1530      H1531   0.992       .  S
C1533      C1534   1.405       .  A
C1533      C1538   1.410   1_565  A
C1534      C1535   1.399       .  A
C1534      H1539   1.084       .  S
C1535      C1536   1.413       .  A
C1535      O1540   1.372       .  S
C1536      C1537   1.406       .  A
C1537      C1538   1.400   1_565  A
C1537      H1541   1.083       .  S
C1538      O1542   1.372       .  S
O1540      H1544   0.992       .  S
O1542      H1543   0.992       .  S
C1545      C1546   1.408       .  A
C1545      C1550   1.408       .  A
C1546      C1547   1.401       .  A
C1546      H1551   1.084       .  S
C1547      C1548   1.407       .  A
C1547      O1552   1.372       .  S
C1548      C1549   1.406       .  A
C1549      C1550   1.398       .  A
C1549      H1553   1.084   1_455  S
C1550      O1554   1.372       .  S
O1552      H1556   0.992       .  S
O1554      H1555   0.992   1_455  S
C1557      C1558   1.407       .  A
C1557      C1562   1.413       .  A
C1558      C1559   1.391       .  A
C1558      H1563   1.084       .  S
C1559      C1560   1.406       .  A
C1559      O1564   1.373   1_455  S
C1560      C1561   1.406       .  A
C1561      C1562   1.410       .  A
C1561      H1565   1.083       .  S
C1562      O1566   1.371       .  S
O1564      H1568   0.992       .  S
O1566      H1567   0.992       .  S
C1569      C1570   1.398       .  A
C1569      C1574   1.410       .  A
C1570      C1571   1.399       .  A
C1570      H1575   1.084       .  S
C1571      C1572   1.413       .  A
C1571      O1576   1.373       .  S
C1572      C1573   1.404       .  A
C1573      C1574   1.406       .  A
C1573      H1577   1.083       .  S
C1574      O1578   1.371       .  S
O1576      H1580   0.992       .  S
O1578      H1579   0.992       .  S
C1581      C1582   1.405       .  A
C1581      C1586   1.408       .  A
C1582      C1583   1.394       .  A
C1582      H1587   1.084       .  S
C1583      C1584   1.403       .  A
C1583      O1588   1.372       .  S
C1584      C1585   1.404       .  A
C1585      C1586   1.404       .  A
C1585      H1589   1.083       .  S
C1586      O1590   1.371       .  S
O1588      H1592   0.992   1_565  S
O1590      H1591   0.992       .  S
C1593      C1594   1.408       .  A
C1593      C1598   1.416       .  A
C1594      C1595   1.402       .  A
C1594      H1599   1.083       .  S
C1595      C1596   1.411       .  A
C1595      O1600   1.372       .  S
C1596      C1597   1.401   1_565  A
C1597      C1598   1.398   1_545  A
C1597      H1601   1.084       .  S
C1598      O1602   1.371       .  S
O1600      H1604   0.992       .  S
O1602      H1603   0.992   1_565  S
C1605      C1606   1.398       .  A
C1605      C1610   1.407       .  A
C1606      C1607   1.398       .  A
C1606      H1611   1.084       .  S
C1607      C1608   1.416       .  A
C1607      O1612   1.374       .  S
C1608      C1609   1.409       .  A
C1609      C1610   1.407       .  A
C1609      H1613   1.083       .  S
C1610      O1614   1.371       .  S
O1612      H1616   0.992       .  S
O1614      H1615   0.992       .  S
C1617      C1618   1.403       .  A
C1617      C1622   1.413       .  A
C1618      C1619   1.404       .  A
C1618      H1623   1.083       .  S
C1619      C1620   1.409       .  A
C1619      O1624   1.372       .  S
C1620      C1621   1.400       .  A
C1621      C1622   1.400       .  A
C1621      H1625   1.084       .  S
C1622      O1626   1.372       .  S
O1624      H1628   0.992       .  S
O1626      H1627   0.992       .  S
C1629      C1630   1.408       .  A
C1629      C1634   1.414       .  A
C1630      C1631   1.396       .  A
C1630      H1635   1.083       .  S
C1631      C1632   1.404       .  A
C1631      O1636   1.373       .  S
C1632      C1633   1.405       .  A
C1633      C1634   1.408       .  A
C1633      H1637   1.083       .  S
C1634      O1638   1.371       .  S
O1636      H1640   0.992       .  S
O1638      H1639   0.992       .  S
C1641      C1642   1.406       .  A
C1641      C1646   1.416   1_455  A
C1642      C1643   1.400       .  A
C1642      H1647   1.083       .  S
C1643      C1644   1.409       .  A
C1643      O1648   1.372       .  S
C1644      C1645   1.403   1_455  A
C1645      C1646   1.404       .  A
C1645      H1649   1.084       .  S
C1646      O1650   1.371       .  S
O1648      H1652   0.992       .  S
O1650      H1651   0.992       .  S
C1653      C1654   1.399       .  A
C1653      C1658   1.409       .  A
C1654      C1655   1.399       .  A
C1654      H1659   1.084       .  S
C1655      C1656   1.412       .  A
C1655      O1660   1.373       .  S
C1656      C1657   1.405       .  A
C1657      C1658   1.405       .  A
C1657      H1661   1.083       .  S
C1658      O1662   1.371       .  S
O1660      H1664   0.992       .  S
O1662      H1663   0.992       .  S
C1665      C1666   1.407       .  A
C1665      C1670   1.412   1_655  A
C1666      C1667   1.402       .  A
C1666      H1671   1.083       .  S
C1667      C1668   1.409       .  A
C1667      O1672   1.372       .  S
C1668      C1669   1.404   1_655  A
C1669      C1670   1.403       .  A
C1669      H1673   1.084       .  S
C1670      O1674   1.372       .  S
O1672      H1676   0.992   1_655  S
O1674      H1675   0.992   1_455  S
C1677      C1678   1.407       .  A
C1677      C1682   1.407   1_554  A
C1678      C1679   1.403       .  A
C1678      H1683   1.084   1_455  S
C1679      C1680   1.409       .  A
C1679      O1684   1.372       .  S
C1680      C1681   1.408       .  A
C1681      C1682   1.400   1_554  A
C1681      H1685   1.083       .  S
C1682      O1686   1.372       .  S
O1684      H1688   0.992       .  S
O1686      H1687   0.992       .  S
C1689      C1690   1.407       .  A
C1689      C1694   1.413   1_565  A
C1690      C1691   1.404       .  A
C1690      H1695   1.083       .  S
C1691      C1692   1.413       .  A
C1691      O1696   1.373       .  S
C1692      C1693   1.406   1_565  A
C1693      C1694   1.401       .  A
C1693      H1697   1.083       .  S
C1694      O1698   1.373       .  S
O1696      H1700   0.992       .  S
O1698      H1699   0.992       .  S
C1701      C1702   1.405       .  A
C1701      C1706   1.404       .  A
C1702      C1703   1.407       .  A
C1702      H1707   1.083       .  S
C1703      C1704   1.410       .  A
C1703      O1708   1.371       .  S
C1704      C1705   1.406       .  A
C1705      C1706   1.397       .  A
C1705      H1709   1.084       .  S
C1706      O1710   1.372       .  S
O1708      H1712   0.992       .  S
O1710      H1711   0.992   1_565  S
C1713      C1714   1.405       .  A
C1713      C1718   1.403       .  A
C1714      C1715   1.409       .  A
C1714      H1719   1.083       .  S
C1715      C1716   1.410       .  A
C1715      O1720   1.371       .  S
C1716      C1717   1.406       .  A
C1717      C1718   1.393       .  A
C1717      H1721   1.084       .  S
C1718      O1722   1.372       .  S
O1720      H1724   0.992       .  S
O1722      H1723   0.992       .  S
C1725      C1726   1.403       .  A
C1725      C1730   1.409   1_554  A
C1726      C1727   1.401       .  A
C1726      H1731   1.084       .  S
C1727      C1728   1.413       .  A
C1727      O1732   1.372       .  S
C1728      C1729   1.404   1_554  A
C1729      C1730   1.399       .  A
C1729      H1733   1.084       .  S
C1730      O1734   1.372       .  S
O1732      H1736   0.992       .  S
O1734      H1735   0.992       .  S
C1737      C1738   1.404       .  A
C1737      C1742   1.410   1_545  A
C1738      C1739   1.400       .  A
C1738      H1743   1.084   1_554  S
C1739      C1740   1.411       .  A
C1739      O1744   1.372       .  S
C1740      C1741   1.408       .  A
C1741      C1742   1.402   1_545  A
C1741      H1745   1.083       .  S
C1742      O1746   1.372       .  S
O1744      H1748   0.992       .  S
O1746      H1747   0.992       .  S
C1749      C1750   1.406       .  A
C1749      C1754   1.414       .  A
C1750      C1751   1.401       .  A
C1750      H1755   1.083       .  S
C1751      C1752   1.412       .  A
C1751      O1756   1.372       .  S
C1752      C1753   1.405       .  A
C1753      C1754   1.405       .  A
C1753      H1757   1.083   1_556  S
C1754      O1758   1.372   1_556  S
O1756      H1760   0.992   1_556  S
O1758      H1759   0.992   1_554  S
C1761      C1762   1.398       .  A
C1761      C1766   1.410       .  A
C1762      C1763   1.399       .  A
C1762      H1767   1.084       .  S
C1763      C1764   1.414       .  A
C1763      O1768   1.373       .  S
C1764      C1765   1.405       .  A
C1765      C1766   1.408       .  A
C1765      H1769   1.083       .  S
C1766      O1770   1.371       .  S
O1768      H1772   0.992       .  S
O1770      H1771   0.991       .  S
C1773      C1774   1.406       .  A
C1773      C1778   1.410   1_565  A
C1774      C1775   1.407       .  A
C1774      H1779   1.083       .  S
C1775      C1776   1.413       .  A
C1775      O1780   1.372       .  S
C1776      C1777   1.405   1_565  A
C1777      C1778   1.403       .  A
C1777      H1781   1.083       .  S
C1778      O1782   1.372       .  S
O1780      H1784   0.992       .  S
O1782      H1783   0.992       .  S
C1785      C1786   1.402       .  A
C1785      C1790   1.413   1_655  A
C1786      C1787   1.402   1_655  A
C1786      H1791   1.084       .  S
C1787      C1788   1.418       .  A
C1787      O1792   1.371   1_455  S
C1788      C1789   1.404       .  A
C1789      C1790   1.404       .  A
C1789      H1793   1.083       .  S
C1790      O1794   1.373   1_565  S
O1792      H1796   0.992       .  S
O1794      H1795   0.992       .  S
C1797      C1798   1.407   1_655  A
C1797      C1802   1.409       .  A
C1798      C1799   1.404       .  A
C1798      H1803   1.084   1_545  S
C1799      C1800   1.412       .  A
C1799      O1804   1.372       .  S
C1800      C1801   1.408       .  A
C1801      C1802   1.402   1_455  A
C1801      H1805   1.083       .  S
C1802      O1806   1.372       .  S
O1804      H1808   0.992       .  S
O1806      H1807   0.992       .  S
C1809      C1810   1.407   1_565  A
C1809      C1814   1.412       .  A
C1810      C1811   1.402       .  A
C1810      H1815   1.083       .  S
C1811      C1812   1.412   1_545  A
C1811      O1816   1.373       .  S
C1812      C1813   1.407       .  A
C1813      C1814   1.404       .  A
C1813      H1817   1.083       .  S
C1814      O1818   1.372       .  S
O1816      H1820   0.992       .  S
O1818      H1819   0.992   1_565  S
C1821      C1822   1.406       .  A
C1821      C1826   1.410       .  A
C1822      C1823   1.401       .  A
C1822      H1827   1.084   1_565  S
C1823      C1824   1.413       .  A
C1823      O1828   1.372       .  S
C1824      C1825   1.407       .  A
C1825      C1826   1.400       .  A
C1825      H1829   1.083       .  S
C1826      O1830   1.371       .  S
O1828      H1832   0.992   1_565  S
O1830      H1831   0.992       .  S
C1833      C1834   1.406       .  A
C1833      C1838   1.412       .  A
C1834      C1835   1.405       .  A
C1834      H1839   1.083       .  S
C1835      C1836   1.412       .  A
C1835      O1840   1.372       .  S
C1836      C1837   1.405       .  A
C1837      C1838   1.401       .  A
C1837      H1841   1.083       .  S
C1838      O1842   1.372       .  S
O1840      H1844   0.992       .  S
O1842      H1843   0.992       .  S
C1845      C1846   1.408       .  A
C1845      C1850   1.415       .  A
C1846      C1847   1.406       .  A
C1846      H1851   1.083       .  S
C1847      C1848   1.410       .  A
C1847      O1852   1.372       .  S
C1848      C1849   1.404       .  A
C1849      C1850   1.403       .  A
C1849      H1853   1.084       .  S
C1850      O1854   1.371       .  S
O1852      H1856   0.992       .  S
O1854      H1855   0.992       .  S
C1857      C1858   1.408       .  A
C1857      C1862   1.413       .  A
C1858      C1859   1.404   1_545  A
C1858      H1863   1.083       .  S
C1859      C1860   1.412   1_565  A
C1859      O1864   1.372       .  S
C1860      C1861   1.406       .  A
C1861      C1862   1.402       .  A
C1861      H1865   1.083   1_556  S
C1862      O1866   1.372       .  S
O1864      H1868   0.992       .  S
O1866      H1867   0.992       .  S
C1869      C1870   1.404       .  A
C1869      C1874   1.406       .  A
C1870      C1871   1.398       .  A
C1870      H1875   1.084       .  S
C1871      C1872   1.406       .  A
C1871      O1876   1.372       .  S
C1872      C1873   1.405       .  A
C1873      C1874   1.402       .  A
C1873      H1877   1.083       .  S
C1874      O1878   1.371       .  S
O1876      H1880   0.992       .  S
O1878      H1879   0.991       .  S
C1881      C1882   1.399       .  A
C1881      C1886   1.406       .  A
C1882      C1883   1.397       .  A
C1882      H1887   1.084       .  S
C1883      C1884   1.412       .  A
C1883      O1888   1.374       .  S
C1884      C1885   1.407       .  A
C1885      C1886   1.405       .  A
C1885      H1889   1.083   1_556  S
C1886      O1890   1.371       .  S
O1888      H1892   0.992       .  S
O1890      H1891   0.991       .  S
C1893      C1894   1.406       .  A
C1893      C1898   1.412       .  A
C1894      C1895   1.396       .  A
C1894      H1899   1.084       .  S
C1895      C1896   1.405       .  A
C1895      O1900   1.372   1_545  S
C1896      C1897   1.404       .  A
C1897      C1898   1.407       .  A
C1897      H1901   1.083       .  S
C1898      O1902   1.371       .  S
O1900      H1904   0.992       .  S
O1902      H1903   0.992       .  S
C1905      C1906   1.405       .  A
C1905      C1910   1.416       .  A
C1906      C1907   1.401       .  A
C1906      H1911   1.083       .  S
C1907      C1908   1.407       .  A
C1907      O1912   1.372   1_545  S
C1908      C1909   1.401       .  A
C1909      C1910   1.402       .  A
C1909      H1913   1.084       .  S
C1910      O1914   1.372       .  S
O1912      H1916   0.992       .  S
O1914      H1915   0.992       .  S
C1917      C1918   1.402       .  A
C1917      C1922   1.407       .  A
C1918      C1919   1.404       .  A
C1918      H1923   1.084       .  S
C1919      C1920   1.410       .  A
C1919      O1924   1.372       .  S
C1920      C1921   1.405       .  A
C1921      C1922   1.401       .  A
C1921      H1925   1.084       .  S
C1922      O1926   1.372       .  S
O1924      H1928   0.992       .  S
O1926      H1927   0.992       .  S
C1929      C1930   1.407       .  A
C1929      C1934   1.413       .  A
C1930      C1931   1.404       .  A
C1930      H1935   1.083       .  S
C1931      C1932   1.411       .  A
C1931      O1936   1.372       .  S
C1932      C1933   1.404       .  A
C1933      C1934   1.399       .  A
C1933      H1937   1.084       .  S
C1934      O1938   1.371       .  S
O1936      H1940   0.992       .  S
O1938      H1939   0.992       .  S
C1941      C1942   1.405       .  A
C1941      C1946   1.408       .  A
C1942      C1943   1.396       .  A
C1942      H1947   1.084       .  S
C1943      C1944   1.403       .  A
C1943      O1948   1.371   1_556  S
C1944      C1945   1.407       .  A
C1945      C1946   1.406       .  A
C1945      H1949   1.084       .  S
C1946      O1950   1.372       .  S
O1948      H1952   0.991       .  S
O1950      H1951   0.992       .  S
C1953      C1954   1.410       .  A
C1953      C1958   1.409       .  A
C1954      C1955   1.401       .  A
C1954      H1959   1.083       .  S
C1955      C1956   1.405       .  A
C1955      O1960   1.372       .  S
C1956      C1957   1.405       .  A
C1957      C1958   1.398       .  A
C1957      H1961   1.084       .  S
C1958      O1962   1.372       .  S
O1960      H1964   0.992       .  S
O1962      H1963   0.992       .  S
C1965      C1966   1.407       .  A
C1965      C1970   1.416       .  A
C1966      C1967   1.405       .  A
C1966      H1971   1.083       .  S
C1967      C1968   1.408       .  A
C1967      O1972   1.371       .  S
C1968      C1969   1.398       .  A
C1969      C1970   1.393       .  A
C1969      H1973   1.084       .  S
C1970      O1974   1.372       .  S
O1972      H1976   0.991       .  S
O1974      H1975   0.992       .  S
C1977      C1978   1.409       .  A
C1977      C1982   1.408       .  A
C1978      C1979   1.404       .  A
C1978      H1983   1.083       .  S
C1979      C1980   1.410       .  A
C1979      O1984   1.372       .  S
C1980      C1981   1.408       .  A
C1981      C1982   1.403       .  A
C1981      H1985   1.083       .  S
C1982      O1986   1.371       .  S
O1984      H1988   0.992       .  S
O1986      H1987   0.992       .  S
C1989      C1990   1.406       .  A
C1989      C1994   1.411       .  A
C1990      C1991   1.401       .  A
C1990      H1995   1.083       .  S
C1991      C1992   1.408       .  A
C1991      O1996   1.372       .  S
C1992      C1993   1.406       .  A
C1993      C1994   1.404       .  A
C1993      H1997   1.084       .  S
C1994      O1998   1.373       .  S
O1996      H2000   0.992       .  S
O1998      H1999   0.992       .  S
C2001      C2002   1.406       .  A
C2001      C2006   1.413   1_554  A
C2002      C2003   1.403       .  A
C2002      H2007   1.083       .  S
C2003      C2004   1.414       .  A
C2003      O2008   1.372       .  S
C2004      C2005   1.406   1_554  A
C2005      C2006   1.406       .  A
C2005      H2009   1.083       .  S
C2006      O2010   1.372       .  S
O2008      H2012   0.992       .  S
O2010      H2011   0.992       .  S
C2013      C2014   1.406       .  A
C2013      C2018   1.405       .  A
C2014      C2015   1.410       .  A
C2014      H2019   1.083       .  S
C2015      C2016   1.412       .  A
C2015      O2020   1.371       .  S
C2016      C2017   1.406       .  A
C2017      C2018   1.395       .  A
C2017      H2021   1.084       .  S
C2018      O2022   1.373       .  S
O2020      H2024   0.992       .  S
O2022      H2023   0.992       .  S
C2025      C2026   1.408       .  A
C2025      C2030   1.414       .  A
C2026      C2027   1.404   1_554  A
C2026      H2031   1.083       .  S
C2027      C2028   1.408       .  A
C2027      O2032   1.371       .  S
C2028      C2029   1.403   1_556  A
C2029      C2030   1.397       .  A
C2029      H2033   1.084   1_655  S
C2030      O2034   1.373       .  S
O2032      H2036   0.992       .  S
O2034      H2035   0.992       .  S
C2037      C2038   1.407       .  A
C2037      C2042   1.413       .  A
C2038      C2039   1.392       .  A
C2038      H2043   1.083       .  S
C2039      C2040   1.406       .  A
C2039      O2044   1.372   1_655  S
C2040      C2041   1.406       .  A
C2041      C2042   1.408       .  A
C2041      H2045   1.083       .  S
C2042      O2046   1.371       .  S
O2044      H2048   0.992       .  S
O2046      H2047   0.992       .  S
C2049      C2050   1.403       .  A
C2049      C2054   1.415       .  A
C2050      C2051   1.401       .  A
C2050      H2055   1.083       .  S
C2051      C2052   1.411       .  A
C2051      O2056   1.371       .  S
C2052      C2053   1.399   1_655  A
C2053      C2054   1.398   1_455  A
C2053      H2057   1.084       .  S
C2054      O2058   1.372       .  S
O2056      H2060   0.992       .  S
O2058      H2059   0.992       .  S
C2061      C2062   1.406       .  A
C2061      C2066   1.410       .  A
C2062      C2063   1.404       .  A
C2062      H2067   1.084       .  S
C2063      C2064   1.407       .  A
C2063      O2068   1.372       .  S
C2064      C2065   1.399       .  A
C2065      C2066   1.400       .  A
C2065      H2069   1.084       .  S
C2066      O2070   1.373       .  S
O2068      H2072   0.992       .  S
O2070      H2071   0.992       .  S
C2073      C2074   1.406       .  A
C2073      C2078   1.412       .  A
C2074      C2075   1.397       .  A
C2074      H2079   1.084       .  S
C2075      C2076   1.406       .  A
C2075      O2080   1.372       .  S
C2076      C2077   1.406       .  A
C2077      C2078   1.410       .  A
C2077      H2081   1.083       .  S
C2078      O2082   1.371       .  S
O2080      H2084   0.992       .  S
O2082      H2083   0.992       .  S
C2085      C2086   1.400       .  A
C2085      C2090   1.408       .  A
C2086      C2087   1.400       .  A
C2086      H2091   1.084       .  S
C2087      C2088   1.411       .  A
C2087      O2092   1.371       .  S
C2088      C2089   1.400       .  A
C2089      C2090   1.399       .  A
C2089      H2093   1.084       .  S
C2090      O2094   1.372       .  S
O2092      H2096   0.992       .  S
O2094      H2095   0.992       .  S
C2097      C2098   1.405       .  A
C2097      C2102   1.405       .  A
C2098      C2099   1.401       .  A
C2098      H2103   1.084       .  S
C2099      C2100   1.409       .  A
C2099      O2104   1.372       .  S
C2100      C2101   1.408       .  A
C2101      C2102   1.401       .  A
C2101      H2105   1.082       .  S
C2102      O2106   1.371       .  S
O2104      H2108   0.992       .  S
O2106      H2107   0.991       .  S
C2109      C2110   1.407       .  A
C2109      C2114   1.414       .  A
C2110      C2111   1.405       .  A
C2110      H2115   1.083       .  S
C2111      C2112   1.406       .  A
C2111      O2116   1.371       .  S
C2112      C2113   1.399       .  A
C2113      C2114   1.396       .  A
C2113      H2117   1.084       .  S
C2114      O2118   1.373       .  S
O2116      H2120   0.992       .  S
O2118      H2119   0.992       .  S
C2121      C2122   1.402       .  A
C2121      C2126   1.407       .  A
C2122      C2123   1.403       .  A
C2122      H2127   1.083       .  S
C2123      C2124   1.408       .  A
C2123      O2128   1.371       .  S
C2124      C2125   1.399       .  A
C2125      C2126   1.396       .  A
C2125      H2129   1.084   1_655  S
C2126      O2130   1.372       .  S
O2128      H2132   0.992       .  S
O2130      H2131   0.991       .  S
C2133      C2134   1.401       .  A
C2133      C2138   1.409       .  A
C2134      C2135   1.403       .  A
C2134      H2139   1.084       .  S
C2135      C2136   1.411       .  A
C2135      O2140   1.371       .  S
C2136      C2137   1.403       .  A
C2137      C2138   1.403       .  A
C2137      H2141   1.084       .  S
C2138      O2142   1.372       .  S
O2140      H2144   0.992       .  S
O2142      H2143   0.991       .  S
C2145      C2146   1.404       .  A
C2145      C2150   1.403       .  A
C2146      C2147   1.407       .  A
C2146      H2151   1.083       .  S
C2147      C2148   1.411       .  A
C2147      O2152   1.371       .  S
C2148      C2149   1.405       .  A
C2149      C2150   1.390       .  A
C2149      H2153   1.084       .  S
C2150      O2154   1.373       .  S
O2152      H2156   0.992       .  S
O2154      H2155   0.992       .  S
C2157      C2158   1.403       .  A
C2157      C2162   1.415       .  A
C2158      C2159   1.397       .  A
C2158      H2163   1.084       .  S
C2159      C2160   1.410       .  A
C2159      O2164   1.372       .  S
C2160      C2161   1.401       .  A
C2161      C2162   1.398       .  A
C2161      H2165   1.084       .  S
C2162      O2166   1.372       .  S
O2164      H2168   0.991       .  S
O2166      H2167   0.992       .  S
C2169      C2170   1.405       .  A
C2169      C2174   1.405       .  A
C2170      C2171   1.401       .  A
C2170      H2175   1.084       .  S
C2171      C2172   1.406       .  A
C2171      O2176   1.371       .  S
C2172      C2173   1.406       .  A
C2173      C2174   1.401       .  A
C2173      H2177   1.084       .  S
C2174      O2178   1.372       .  S
O2176      H2180   0.992       .  S
O2178      H2179   0.992       .  S
C2181      C2182   1.400       .  A
C2181      C2186   1.411       .  A
C2182      C2183   1.402       .  A
C2182      H2187   1.084       .  S
C2183      C2184   1.415       .  A
C2183      O2188   1.371       .  S
C2184      C2185   1.405       .  A
C2185      C2186   1.396       .  A
C2185      H2189   1.084       .  S
C2186      O2190   1.373       .  S
O2188      H2192   0.992       .  S
O2190      H2191   0.992       .  S
C2193      C2194   1.407       .  A
C2193      C2198   1.414       .  A
C2194      C2195   1.408       .  A
C2194      H2199   1.083       .  S
C2195      C2196   1.409       .  A
C2195      O2200   1.371       .  S
C2196      C2197   1.401       .  A
C2197      C2198   1.399       .  A
C2197      H2201   1.084       .  S
C2198      O2202   1.372       .  S
O2200      H2204   0.992       .  S
O2202      H2203   0.992       .  S
C2205      C2206   1.398       .  A
C2205      C2210   1.407       .  A
C2206      C2207   1.394       .  A
C2206      H2211   1.084       .  S
C2207      C2208   1.410       .  A
C2207      O2212   1.374       .  S
C2208      C2209   1.406       .  A
C2209      C2210   1.406       .  A
C2209      H2213   1.083       .  S
C2210      O2214   1.371       .  S
O2212      H2216   0.992       .  S
O2214      H2215   0.991       .  S
C2217      C2218   1.409       .  A
C2217      C2222   1.409       .  A
C2218      C2219   1.401       .  A
C2218      H2223   1.084       .  S
C2219      C2220   1.404       .  A
C2219      O2224   1.372       .  S
C2220      C2221   1.406       .  A
C2221      C2222   1.408       .  A
C2221      H2225   1.083       .  S
C2222      O2226   1.371       .  S
O2224      H2228   0.992       .  S
O2226      H2227   0.992       .  S
C2229      C2230   1.400       .  A
C2229      C2234   1.408       .  A
C2230      C2231   1.398       .  A
C2230      H2235   1.084       .  S
C2231      C2232   1.412       .  A
C2231      O2236   1.374       .  S
C2232      C2233   1.408       .  A
C2233      C2234   1.406       .  A
C2233      H2237   1.083       .  S
C2234      O2238   1.371       .  S
O2236      H2240   0.992       .  S
O2238      H2239   0.992       .  S
