geometry optimzed in LAMMPS
_audit_creation_date              2020-11-30 
_audit_creation_method            'lammps2cif' 
_symmetry_space_group_name_H-M    'P1' 
_symmetry_Int_Tables_number       1 
_symmetry_cell_setting            triclinic 
loop_ 
_symmetry_equiv_pos_as_xyz 
  x,y,z 
_cell_length_a                    24.93858877 
_cell_length_b                    25.014357316324812 
_cell_length_c                    25.25224629527054 
_cell_angle_alpha                 91.27689823905018 
_cell_angle_beta                  90.16635817306597 
_cell_angle_gamma                 88.21824836181038 
loop_ 
_atom_site_label 
_atom_site_type_symbol 
_atom_site_fract_x 
_atom_site_fract_y 
_atom_site_fract_z 
_atom_site_charge 
N1          N  0.49609111  0.01218960  0.27389595    -0.36300
N2          N  0.51695986  0.09224763  0.35618098    -0.56800
N3          N  0.50692105  0.01057414  0.43478265    -0.36300
N4          N  0.49185153  0.92973246  0.35382684    -0.56800
C5          C  0.49656885  0.05530573  0.24312852     0.27300
C6          C  0.49006491  0.96962929  0.24128294     0.27300
C7          C  0.49899783  0.05528580  0.46516222     0.27300
C8          C  0.49037724  0.96910359  0.46342568     0.27300
C9          C  0.51378136  0.12446058  0.31392714     0.35900
C10         C  0.52137313  0.12421065  0.39983735     0.35900
C11         C  0.49449313  0.89854554  0.30952097     0.35900
C12         C  0.50056464  0.89726299  0.39542769     0.35900
C13         C  0.49016864  0.04000385  0.19031899    -0.21600
C14         C  0.48648416  0.98587763  0.18911476    -0.21600
C15         C  0.47658046  0.04203795  0.51323798    -0.21600
C16         C  0.47109051  0.98767497  0.51209681    -0.21600
C17         C  0.51649100  0.17681164  0.33116163    -0.22600
C18         C  0.52321984  0.17705274  0.38514017    -0.22600
C19         C  0.50316249  0.84612443  0.32342705    -0.22600
C20         C  0.50855443  0.84503002  0.37754627    -0.22600
C21         C  0.50319760  0.10821802  0.26070498    -0.18000
C22         C  0.48990489  0.91617468  0.25655396    -0.18000
C23         C  0.49773063  0.91445683  0.44911533    -0.18000
C24         C  0.51444317  0.10741665  0.45244785    -0.18000
H25         H  0.48913748  0.06495002  0.15582569     0.14900
H26         H  0.48216423  0.96141708  0.15353636     0.14900
H27         H  0.46597145  0.06871910  0.54614029     0.14900
H28         H  0.45570548  0.96426822  0.54392412     0.14900
H29         H  0.50848282  0.21090834  0.30758449     0.13200
H30         H  0.52353247  0.21233922  0.41067260     0.13200
H31         H  0.50537687  0.81266778  0.29672548     0.13200
H32         H  0.51603708  0.80979705  0.40087157     0.13200
H33         H  0.49968895  0.01173931  0.31449372     0.26500
H34         H  0.52957602  0.00745532  0.40027740     0.26500
N35         N  0.95926882  0.53418334  0.52641457    -0.36300
N36         N  0.07387363  0.54099821  0.52707591    -0.56800
N37         N  0.08460441  0.42924512  0.49094479    -0.36300
N38         N  0.96602436  0.42720257  0.49452379    -0.56800
C39         C  0.96510840  0.58295361  0.54863424     0.27300
C40         C  0.90909760  0.51896465  0.53710699     0.27300
C41         C  0.13350334  0.43817167  0.51189895     0.27300
C42         C  0.07520653  0.37663287  0.49709112     0.27300
C43         C  0.06047769  0.59371415  0.52820272     0.35900
C44         C  0.12712654  0.53724830  0.51759130     0.35900
C45         C  0.91364085  0.43556347  0.48444767     0.35900
C46         C  0.98204917  0.38246139  0.46836184     0.35900
C47         C  0.91872044  0.59941902  0.57475156    -0.21600
C48         C  0.88355320  0.55841107  0.56848182    -0.21600
C49         C  0.15637708  0.38982177  0.52808195    -0.21600
C50         C  0.11942304  0.35112731  0.51912292    -0.21600
C51         C  0.10571449  0.62349551  0.52058771    -0.22600
C52         C  0.14819721  0.58761394  0.51467097    -0.22600
C53         C  0.89494940  0.39549629  0.45135336    -0.22600
C54         C  0.93842989  0.36112075  0.44179828    -0.22600
C55         C  0.00803865  0.61524718  0.53720278    -0.18000
C56         C  0.88344522  0.47736550  0.50872279    -0.18000
C57         C  0.02584810  0.35244430  0.48770242    -0.18000
C58         C  0.15727412  0.48889471  0.51756959    -0.18000
H59         H  0.91045811  0.63756645  0.59456979     0.14900
H60         H  0.84296629  0.55931157  0.58311191     0.14900
H61         H  0.19418023  0.38295406  0.54758607     0.14900
H62         H  0.12362528  0.30949439  0.52968233     0.14900
H63         H  0.10810424  0.66651573  0.52066679     0.13200
H64         H  0.18975206  0.59738560  0.50913060     0.13200
H65         H  0.85406842  0.38995042  0.43833348     0.13200
H66         H  0.93724589  0.32277149  0.42120132     0.13200
H67         H  0.98404081  0.51842631  0.49647055     0.26500
H68         H  0.05903794  0.45756272  0.47350862     0.26500
N69         N  0.56086714  0.45610482  0.96585783    -0.36300
N70         N  0.55218875  0.46647374  0.08083279    -0.56800
N71         N  0.43589395  0.45229171  0.07517772    -0.36300
N72         N  0.44390256  0.44628086  0.96052185    -0.56800
C73         C  0.61028725  0.47391777  0.97780295     0.27300
C74         C  0.55267725  0.46342403  0.91344291     0.27300
C75         C  0.44060248  0.45992275  0.12796523     0.27300
C76         C  0.38323595  0.45571101  0.06309089     0.27300
C77         C  0.60593764  0.47055774  0.07669870     0.35900
C78         C  0.54112021  0.46440746  0.13304582     0.35900
C79         C  0.45539086  0.44063724  0.90860275     0.35900
C80         C  0.39001539  0.44384337  0.96496441     0.35900
C81         C  0.63477137  0.48962964  0.93153702    -0.21600
C82         C  0.59843382  0.48330169  0.89116187    -0.21600
C83         C  0.39005867  0.46528244  0.15046151    -0.21600
C84         C  0.35384180  0.46281987  0.10952183    -0.21600
C85         C  0.62925792  0.47173192  0.12641849    -0.22600
C86         C  0.58844340  0.46724614  0.16187758    -0.22600
C87         C  0.40833520  0.43192335  0.88055850    -0.22600
C88         C  0.36694347  0.43493954  0.91600632    -0.22600
C89         C  0.63399022  0.47731372  0.02907006    -0.18000
C90         C  0.50450119  0.45494563  0.88516893    -0.18000
C91         C  0.36086958  0.45627930  0.01139887    -0.18000
C92         C  0.48899241  0.46652758  0.15596538    -0.18000
H93         H  0.67414391  0.50565103  0.92714708     0.14900
H94         H  0.60465666  0.49336525  0.85020937     0.14900
H95         H  0.38030123  0.47222322  0.19183070     0.14900
H96         H  0.31078082  0.46688603  0.11357629     0.14900
H97         H  0.67116622  0.47617945  0.13629334     0.13200
H98         H  0.59313568  0.46724675  0.20422657     0.13200
H99         H  0.40371416  0.42705038  0.83850555     0.13200
H100        H  0.32469451  0.43250998  0.90662870     0.13200
H101        H  0.53506162  0.43774992  0.99141232     0.26500
H102        H  0.46724234  0.44773766  0.04872254     0.26500
N103        N  0.96572366  0.41499379  0.98529516    -0.36300
N104        N  0.00047115  0.41437559  0.09601529    -0.56800
N105        N  0.00000162  0.53083440  0.09336811    -0.36300
N106        N  0.96677774  0.53019157  0.98575941    -0.56800
C107        C  0.97906096  0.36272964  0.99183667     0.27300
C108        C  0.96602551  0.42391446  0.93268277     0.27300
C109        C  0.02665520  0.51805979  0.13803106     0.27300
C110        C  0.01513793  0.58002975  0.07962475     0.27300
C111        C  0.98166333  0.36467398  0.08984417     0.35900
C112        C  0.99662780  0.42686704  0.14825890     0.35900
C113        C  0.94674121  0.52197754  0.93681817     0.35900
C114        C  0.96491745  0.58338995  0.99516119     0.35900
C115        C  0.98662586  0.33752413  0.94300004    -0.21600
C116        C  0.97871753  0.37616703  0.90558626    -0.21600
C117        C  0.05814686  0.56030262  0.15376490    -0.21600
C118        C  0.05143338  0.59928394  0.11645908    -0.21600
C119        C  0.96781076  0.34484782  0.13875661    -0.22600
C120        C  0.97659833  0.38476198  0.17578739    -0.22600
C121        C  0.93027027  0.57005614  0.91513011    -0.22600
C122        C  0.94161291  0.60908818  0.95216711    -0.22600
C123        C  0.97881912  0.33671853  0.04067519    -0.18000
C124        C  0.95352099  0.47347291  0.90839142    -0.18000
C125        C  0.99488853  0.60835261  0.03585677    -0.18000
C126        C  0.01159217  0.47609867  0.17063410    -0.18000
H127        H  0.99606010  0.29556895  0.93516565     0.14900
H128        H  0.98105321  0.36939411  0.86320307     0.14900
H129        H  0.08197103  0.56355160  0.18940393     0.14900
H130        H  0.06978533  0.63794392  0.11731821     0.14900
H131        H  0.95181919  0.30630491  0.14694956     0.13200
H132        H  0.96945823  0.38296223  0.21796421     0.13200
H133        H  0.91478402  0.57655821  0.87562889     0.13200
H134        H  0.93636872  0.65155897  0.94630199     0.13200
H135        H  0.95188326  0.44141084  0.01492670     0.26500
H136        H  0.96772720  0.51008038  0.07791356     0.26500
N137        N  0.56305690  0.94177491  0.00702098    -0.36300
N138        N  0.55896462  0.05878338  0.00191849    -0.56800
N139        N  0.44492463  0.06053440  0.01220926    -0.36300
N140        N  0.44892073  0.94588162  0.01441103    -0.56800
C141        C  0.61146091  0.95465244  0.98868942     0.27300
C142        C  0.55100959  0.89364981  0.98521430     0.27300
C143        C  0.45173132  0.11033841  0.99430055     0.27300
C144        C  0.39320084  0.04901960  0.00406093     0.27300
C145        C  0.61097302  0.04990891  0.01430359     0.35900
C146        C  0.54867554  0.11133667  0.01120987     0.35900
C147        C  0.46105956  0.89394815  0.02281811     0.35900
C148        C  0.39812247  0.95494581  0.03107401     0.35900
C149        C  0.63157951  0.91365455  0.95592009    -0.21600
C150        C  0.59245917  0.87564683  0.95248542    -0.21600
C151        C  0.40373845  0.13130607  0.97512498    -0.21600
C152        C  0.36651445  0.09256450  0.98160658    -0.21600
C153        C  0.63417430  0.09686366  0.03135812    -0.22600
C154        C  0.59460449  0.13613790  0.02881229    -0.22600
C155        C  0.41738862  0.87025779  0.04513249    -0.22600
C156        C  0.37745739  0.90893307  0.05082774    -0.22600
C157        C  0.63842167  0.00092102  0.00493267    -0.18000
C158        C  0.50381492  0.86631207  0.99624446    -0.18000
C159        C  0.36894090  0.00260899  0.02217702    -0.18000
C160        C  0.49987693  0.13761437  0.99786536    -0.18000
H161        H  0.66953766  0.91204849  0.93535519     0.14900
H162        H  0.59425921  0.83908505  0.92882240     0.14900
H163        H  0.39617062  0.17058869  0.95905947     0.14900
H164        H  0.32461816  0.09634788  0.97119004     0.14900
H165        H  0.67562256  0.10255308  0.04235632     0.13200
H166        H  0.59920437  0.17812175  0.03817179     0.13200
H167        H  0.41358025  0.82857788  0.05300012     0.13200
H168        H  0.33703036  0.90304902  0.06451925     0.13200
H169        H  0.54187297  0.96313393  0.03657750     0.26500
H170        H  0.47209043  0.03824716  0.03482699     0.26500
O171        O  0.85568201  0.73645156  0.83675413    -0.78200
C172        C  0.72464480  0.77872610  0.93889821     0.82900
O173        O  0.71508906  0.61357284  0.78401200    -0.79300
O174        O  0.61086338  0.79632079  0.78736403    -0.80800
O175        O  0.77882665  0.86158057  0.74524758    -0.80600
O176        O  0.87035685  0.76601648  0.75629538    -0.79200
Zn177      Zn  0.77913088  0.72057515  0.84572727     1.55700
O178        O  0.71614162  0.88514308  0.80481152    -0.80600
Cd179      Cd  0.78789993  0.78053508  0.73679605     1.59700
Cd180      Cd  0.69722739  0.69105868  0.75290268     1.59600
O181        O  0.76972882  0.75809283  0.65790453    -0.80600
O182        O  0.73706221  0.75049736  0.78991855    -1.91100
Cd183      Cd  0.68751429  0.80774910  0.82302865     1.59900
O184        O  0.71733468  0.68931547  0.67278795    -0.80500
O185        O  0.69211247  0.80406686  0.90798519    -0.79200
C186        C  0.74998070  0.60487432  0.82028014     0.83300
C187        C  0.88783379  0.75208457  0.80177550     0.83000
O188        O  0.75878284  0.74457815  0.92034993    -0.78100
C189        C  0.75388510  0.89727717  0.77330599     0.83800
O190        O  0.77431167  0.64341878  0.84185532    -0.78200
C191        C  0.74236913  0.71883377  0.64106930     0.83900
C192        C  0.59021209  0.75769813  0.76051599     0.84300
O193        O  0.61577483  0.71339906  0.75085818    -0.80700
O194        O  0.11423099  0.79267840  0.75140701    -0.78200
C195        C  0.25124578  0.89147415  0.76872078     0.82900
O196        O  0.24726001  0.73110707  0.60951896    -0.79300
O197        O  0.36766681  0.76675936  0.77441481    -0.80800
O198        O  0.20777090  0.69337799  0.87025126    -0.80600
O199        O  0.11373932  0.70662010  0.77447890    -0.79200
Zn200      Zn  0.18805037  0.80025763  0.71812856     1.55700
O201        O  0.27197042  0.75249241  0.86816220    -0.80600
Cd202      Cd  0.19503582  0.68925128  0.78614410     1.59700
Cd203      Cd  0.27785192  0.71119854  0.68556136     1.59600
O204        O  0.22212695  0.61123213  0.76221763    -0.80600
O205        O  0.23554340  0.74478105  0.74550827    -1.91100
Cd206      Cd  0.28643881  0.77890794  0.79523717     1.59900
O207        O  0.28046722  0.62919686  0.69822810    -0.80500
O208        O  0.27560950  0.86022560  0.80017983    -0.79200
C209        C  0.20879721  0.76455040  0.60011906     0.83300
C210        C  0.09059788  0.75277714  0.77043207     0.83000
O211        O  0.21696574  0.87460433  0.73511451    -0.78100
C212        C  0.24301830  0.72129340  0.89376797     0.83800
O213        O  0.18541494  0.79098078  0.63798046    -0.78200
C214        C  0.25896074  0.59626152  0.72933942     0.83900
C215        C  0.38643105  0.75483969  0.72856345     0.84300
O216        O  0.35652549  0.73652177  0.69153244    -0.80700
O217        O  0.72069385  0.12356092  0.82166303    -0.78200
C218        C  0.72868519  0.25149418  0.93743830     0.82900
O219        O  0.62283923  0.29633485  0.75326118    -0.79300
O220        O  0.78648945  0.36206349  0.84416773    -0.80800
O221        O  0.85808421  0.23506152  0.73685307    -0.80600
O222        O  0.77867119  0.13245549  0.75583366    -0.79200
Zn223      Zn  0.69341195  0.20422378  0.82812418     1.55700
O224        O  0.87206395  0.25849983  0.82158346    -0.80600
Cd225      Cd  0.77892987  0.21082394  0.73789582     1.59700
Cd226      Cd  0.70370817  0.31278019  0.75438718     1.59600
O227        O  0.74384242  0.22311821  0.66482469    -0.80600
O228        O  0.74048597  0.25210207  0.79297796    -1.91100
Cd229      Cd  0.79407244  0.27962990  0.84449258     1.59900
O230        O  0.72933158  0.31079651  0.67441762    -0.80500
O231        O  0.77556358  0.26373862  0.92312850    -0.79200
C232        C  0.59711431  0.25524802  0.76641497     0.83300
C233        C  0.75644132  0.10371312  0.78993699     0.83000
O234        O  0.69566897  0.22979069  0.90502990    -0.78100
C235        C  0.88883469  0.25079056  0.77422034     0.83800
O236        O  0.61838795  0.21759536  0.79404194    -0.78200
C237        C  0.74019338  0.26943993  0.64517202     0.83900
C238        C  0.75599393  0.39869639  0.82480398     0.84300
O239        O  0.72016109  0.38800615  0.79008446    -0.80700
O240        O  0.26812735  0.22140554  0.62787497    -0.78200
C241        C  0.39203696  0.23789186  0.74842893     0.82900
O242        O  0.21599909  0.11242428  0.78152272    -0.79300
O243        O  0.27158764  0.25884254  0.89113948    -0.80800
O244        O  0.22652748  0.37815625  0.73796390    -0.80600
O245        O  0.21860102  0.29577811  0.63809205    -0.79200
Zn246      Zn  0.28197849  0.20404949  0.70597495     1.55700
O247        O  0.28998662  0.36243021  0.79876910    -0.80600
Cd248      Cd  0.20446433  0.30090429  0.71835127     1.59700
Cd249      Cd  0.19079213  0.19528095  0.79334909     1.59600
O250        O  0.12589001  0.29308388  0.73014833    -0.80600
O251        O  0.24314669  0.24477179  0.75892459    -1.91100
Cd252      Cd  0.29415733  0.27945295  0.81210354     1.59900
O253        O  0.10877247  0.21956729  0.77459432    -0.80500
O254        O  0.37661253  0.25900583  0.79276780    -0.79200
C255        C  0.25574672  0.09584429  0.75283928     0.83300
C256        C  0.24585900  0.26313541  0.60885882     0.83000
O257        O  0.35795726  0.21914538  0.71615936    -0.78100
C258        C  0.26442265  0.39411381  0.76754185     0.83800
O259        O  0.27898560  0.12787142  0.72268064    -0.78200
C260        C  0.09276298  0.26233257  0.75098547     0.83900
C261        C  0.23400887  0.22882190  0.90675150     0.84300
O262        O  0.20209901  0.20617801  0.87413395    -0.80700
O263        O  0.74876160  0.72874749  0.16476934    -0.78200
C264        C  0.86376268  0.74961415  0.29333957     0.82900
O265        O  0.70283737  0.64468687  0.34268855    -0.79300
O266        O  0.75105859  0.77282462  0.42233366    -0.80800
O267        O  0.68277917  0.89021392  0.27204851    -0.80600
O268        O  0.69785497  0.80296697  0.17339197    -0.79200
Zn269      Zn  0.75593512  0.71021918  0.24499912     1.55700
O270        O  0.74591086  0.87685510  0.33412240    -0.80600
Cd271      Cd  0.66964891  0.80839195  0.25082501     1.59700
Cd272      Cd  0.66830987  0.71942370  0.33974462     1.59600
O273        O  0.59290290  0.77493725  0.25057254    -0.80600
O274        O  0.71563068  0.75948783  0.29271293    -1.91100
Cd275      Cd  0.76252009  0.79790389  0.34412920     1.59900
O276        O  0.59144967  0.70943174  0.30910869    -0.80500
O277        O  0.84412156  0.78471684  0.32572770    -0.79200
C278        C  0.71417965  0.61453631  0.30291654     0.83300
C279        C  0.72671284  0.77057799  0.14493669     0.83000
O280        O  0.83374339  0.72076076  0.26395350    -0.78100
C281        C  0.71927845  0.90761672  0.30332887     0.83800
O282        O  0.73322975  0.63291774  0.26014959    -0.78200
C283        C  0.56948594  0.73570343  0.27191762     0.83900
C284        C  0.70910191  0.75474707  0.44358850     0.84300
O285        O  0.66617372  0.74955142  0.41682186    -0.80700
O286        O  0.26787671  0.78922607  0.12805797    -0.78200
C287        C  0.23415865  0.91969383  0.24882882     0.82900
O288        O  0.33612379  0.70827197  0.28321470    -0.79300
O289        O  0.18647248  0.81456355  0.36448825    -0.80800
O290        O  0.08789402  0.75036168  0.20626313    -0.80600
O291        O  0.19247512  0.74896923  0.10824078    -0.79200
Zn292      Zn  0.27079804  0.80633183  0.20724954     1.55700
O293        O  0.08766644  0.80078427  0.28034002    -0.80600
Cd294      Cd  0.16866167  0.74152928  0.18822301     1.59700
Cd295      Cd  0.25072139  0.71424505  0.29384672     1.59600
O296        O  0.17914961  0.66266250  0.19608828    -0.80600
O297        O  0.21646271  0.77128923  0.24481762    -1.91100
Cd298      Cd  0.16951983  0.82500792  0.28503840     1.59900
O299        O  0.22422526  0.63712296  0.26790482    -0.80500
O300        O  0.18978193  0.90578129  0.26923971    -0.79200
C301        C  0.36444737  0.73535236  0.25190192     0.83300
C302        C  0.23815559  0.76539162  0.09430490     0.83000
O303        O  0.26559594  0.88535857  0.22584139    -0.78100
C304        C  0.06443893  0.76842038  0.24814427     0.83800
O305        O  0.34341459  0.77388769  0.22595728    -0.78200
C306        C  0.19903601  0.62617872  0.22481518     0.83900
C307        C  0.20386024  0.77668903  0.39374050     0.84300
O308        O  0.22865602  0.73484519  0.37430397    -0.80700
O309        O  0.59662927  0.24166159  0.26645754    -0.78200
C310        C  0.69911620  0.26343176  0.13930394     0.82900
O311        O  0.73955762  0.14591686  0.33959061    -0.79300
O312        O  0.84133398  0.28430422  0.24230087    -0.80800
O313        O  0.70289937  0.38237500  0.33866740    -0.80600
O314        O  0.59702504  0.31176535  0.32321490    -0.79200
Zn315      Zn  0.67250413  0.21531454  0.24914918     1.55700
O316        O  0.74126370  0.38912804  0.25890574    -0.80600
Cd317      Cd  0.67856722  0.30577411  0.34618056     1.59700
Cd318      Cd  0.76876755  0.22049580  0.33155376     1.59600
O319        O  0.69837204  0.28821879  0.42716232    -0.80600
O320        O  0.71855261  0.26302282  0.28919558    -1.91100
Cd321      Cd  0.75948165  0.30811294  0.23911099     1.59900
O322        O  0.77700033  0.25010807  0.40636451    -0.80500
O323        O  0.73269365  0.29559893  0.15988446    -0.79200
C324        C  0.72050358  0.11545037  0.30375218     0.83300
C325        C  0.57356881  0.28323082  0.28805080     0.83000
O326        O  0.67558555  0.22968975  0.16792250    -0.78100
C327        C  0.71792007  0.40991163  0.29987760     0.83800
O328        O  0.69366919  0.13470951  0.26488187    -0.78200
C329        C  0.74537623  0.27139145  0.44071331     0.83900
C330        C  0.86678037  0.24562678  0.26483130     0.84300
O331        O  0.84457143  0.21609860  0.29829685    -0.80700
N332        N  0.23645131  0.09897481  0.51895538    -0.36300
N333        N  0.10525636  0.07429437  0.43950295    -0.56800
N334        N  0.04445865  0.02131213  0.51955782    -0.36300
N335        N  0.12595439  0.04071794  0.59915889    -0.56800
C336        C  0.20004948  0.11927327  0.48493331     0.28900
C337        C  0.21314896  0.10131485  0.56648721     0.27300
C338        C  0.00897066  0.02698398  0.47924833     0.27300
C339        C  0.01557205  0.01830774  0.56474519     0.27300
C340        C  0.14893587  0.08374804  0.41021851     0.35900
C341        C  0.07211867  0.04627832  0.40803926     0.35900
C342        C  0.17498512  0.03446696  0.62122189     0.35900
C343        C  0.09211999  0.01169045  0.62707231     0.35900
C344        C  0.15852830  0.14526044  0.51236680    -0.21600
C345        C  0.16759295  0.13483640  0.56489909    -0.21600
C346        C  0.95712006  0.02715089  0.49877074    -0.21600
C347        C  0.96122450  0.02107674  0.55250075    -0.21600
C348        C  0.14300337  0.06252064  0.35956848    -0.22600
C349        C  0.09373397  0.03937195  0.35781270    -0.22600
C350        C  0.17261489  0.99933011  0.66242998    -0.22600
C351        C  0.11941930  0.98688794  0.66808269    -0.22600
C352        C  0.19773334  0.09931385  0.43291973    -0.18000
C353        C  0.22108960  0.05867858  0.60101271    -0.18000
C354        C  0.03681925  0.01075844  0.61642323    -0.18000
C355        C  0.02248516  0.02771768  0.42489712    -0.18000
H356        H  0.12233512  0.16341517  0.49603200     0.14900
H357        H  0.13911397  0.14297130  0.59656688     0.14900
H358        H  0.92006153  0.03062326  0.47653754     0.14900
H359        H  0.92769088  0.01826310  0.57925387     0.14900
H360        H  0.17247725  0.06094194  0.32850169     0.13200
H361        H  0.07707458  0.01758478  0.32444589     0.13200
H362        H  0.20565848  0.98360179  0.68495934     0.13200
H363        H  0.10362287  0.96064374  0.69724529     0.13200
H364        H  0.26848397  0.07281332  0.50903636     0.26500
H365        H  0.08578111  0.01522522  0.51543517     0.26500
C366        C  0.26185094  0.07104111  0.25447479     0.03500
C367        C  0.31454508  0.06582755  0.27263758    -0.12700
C368        C  0.32880678  0.02170509  0.30296933     0.01000
C369        C  0.30571390  0.97346142  0.28697055    -0.11200
C370        C  0.25651302  0.97359528  0.25931891     0.03400
C371        C  0.23179521  0.02392013  0.24679441    -0.10600
H372        H  0.33742335  0.10164583  0.27628447     0.09000
H373        H  0.32104665  0.93640817  0.30358065     0.06600
H374        H  0.19144692  0.02626144  0.23095556     0.06400
O375        O  0.17197957  0.38403293  0.20602718    -0.78200
C376        C  0.21675065  0.25862996  0.10904302     0.82900
O377        O  0.09924775  0.22558728  0.29596337    -0.79300
O378        O  0.26580619  0.15751914  0.22059515    -0.80800
O379        O  0.33920049  0.33672330  0.28338996    -0.80600
O380        O  0.22806726  0.41233787  0.26879943    -0.79200
Zn381      Zn  0.16484199  0.30503453  0.20931707     1.55700
O382        O  0.34879062  0.26137381  0.23573954    -0.80600
Cd383      Cd  0.25555489  0.33726033  0.29466272     1.59700
Cd384      Cd  0.18394823  0.22632931  0.31038878     1.59600
O385        O  0.24757431  0.32570718  0.37345388    -0.80600
O386        O  0.21752039  0.27682429  0.25820278    -1.91100
Cd387      Cd  0.27218522  0.23919839  0.21334332     1.59900
O388        O  0.20888441  0.24875857  0.39078731    -0.80500
O389        O  0.26159099  0.25376835  0.13282237    -0.79200
C390        C  0.07126846  0.24875243  0.25981550     0.83300
C391        C  0.19759932  0.42129777  0.22911146     0.83000
O392        O  0.17486132  0.27499308  0.13391370    -0.78100
C393        C  0.36883349  0.30185317  0.25920756     0.83800
O394        O  0.09142475  0.28236572  0.22894278    -0.78200
C395        C  0.23374185  0.29078327  0.40638526     0.83900
C396        C  0.24188587  0.12753890  0.25248009     0.84300
O397        O  0.21118288  0.14701169  0.28929170    -0.80700
C398        C  0.01803225  0.22881941  0.24333502     0.03500
C399        C  0.01663955  0.20493360  0.19234252    -0.12700
C400        C  0.96814182  0.19445185  0.16576059     0.01000
C401        C  0.92060096  0.20302592  0.19477359    -0.11200
C402        C  0.92025228  0.22902795  0.24441916     0.03400
C403        C  0.96920102  0.24188741  0.26940193    -0.10600
H404        H  0.05434868  0.19983090  0.17178928     0.09000
H405        H  0.88232064  0.19349550  0.17740605     0.06600
H406        H  0.96913929  0.26375705  0.30689591     0.06400
C407        C  0.22831093  0.21334447  0.96324858     0.03500
C408        C  0.22384546  0.15825370  0.97208148    -0.12700
C409        C  0.21159111  0.13870926  0.02225062     0.01000
C410        C  0.19985692  0.17594285  0.06282192    -0.11200
C411        C  0.21111767  0.22993878  0.05768196     0.03400
C412        C  0.22549351  0.24941621  0.00742633    -0.10600
H413        H  0.23339771  0.13055782  0.93973437     0.09000
H414        H  0.18860146  0.16186593  0.10142948     0.06600
H415        H  0.23336240  0.29136988  0.00275911     0.06400
C416        C  0.42580373  0.31207175  0.24704065     0.03500
C417        C  0.43614037  0.31271524  0.19245176    -0.12700
C418        C  0.48477693  0.29051129  0.17464910     0.01000
C419        C  0.52883694  0.30378270  0.20570283    -0.11200
C420        C  0.52342527  0.30268873  0.26103147     0.03400
C421        C  0.47031495  0.30587169  0.28260342    -0.10600
H422        H  0.40268605  0.31369919  0.16497795     0.09000
H423        H  0.56846085  0.29797610  0.18860361     0.06600
H424        H  0.46374144  0.29980256  0.32435948     0.06400
C425        C  0.74252280  0.05948244  0.30341042     0.03500
C426        C  0.79803209  0.05565206  0.31366354    -0.12700
C427        C  0.82662197  0.00708355  0.31193433     0.01000
C428        C  0.79855213  0.96101812  0.30190308    -0.11200
C429        C  0.74201824  0.96168853  0.29908842     0.03400
C430        C  0.71343179  0.01171167  0.29673834    -0.10600
H431        H  0.81955745  0.09143658  0.32370971     0.09000
H432        H  0.82111110  0.92327029  0.29948107     0.06600
H433        H  0.67017983  0.01339145  0.29276915     0.06400
C434        C  0.70571781  0.27313118  0.98768689     0.03500
C435        C  0.65904344  0.30417942  0.98039392    -0.12700
C436        C  0.61710390  0.29922924  0.01559977     0.01000
C437        C  0.63087063  0.28712239  0.06861735    -0.11200
C438        C  0.68364958  0.26904317  0.08196881     0.03400
C439        C  0.72002088  0.25740420  0.03961174    -0.10600
H440        H  0.65019427  0.31947307  0.94132960     0.09000
H441        H  0.60064109  0.29087570  0.09891627     0.06600
H442        H  0.75760097  0.23599619  0.04678208     0.06400
C443        C  0.69168395  0.56106532  0.30404959     0.03500
C444        C  0.72133477  0.51237869  0.29738082    -0.12700
C445        C  0.69362377  0.46421549  0.29904763     0.01000
C446        C  0.63747373  0.46571209  0.30266142    -0.11200
C447        C  0.60760169  0.51368447  0.30879981     0.03400
C448        C  0.63596987  0.56080628  0.31260625    -0.10600
H449        H  0.76453720  0.51201141  0.29307288     0.09000
H450        H  0.61710628  0.42835391  0.29774877     0.06600
H451        H  0.61411767  0.59850153  0.31880672     0.06400
C452        C  0.76775597  0.27624089  0.49574964     0.03500
C453        C  0.82422627  0.27529445  0.49945292    -0.12700
C454        C  0.85099709  0.27037887  0.54777018     0.01000
C455        C  0.82114307  0.27146641  0.59406584    -0.11200
C456        C  0.76505383  0.27520226  0.59286765     0.03400
C457        C  0.73755187  0.27671951  0.54342269    -0.10600
H458        H  0.84816172  0.27797492  0.46392119     0.09000
H459        H  0.84189650  0.26839093  0.63175869     0.06600
H460        H  0.69417831  0.27616943  0.54211062     0.06400
C461        C  0.19576343  0.57124003  0.20157902     0.03500
C462        C  0.19181333  0.56761650  0.14569901    -0.12700
C463        C  0.19585843  0.51871999  0.11816999     0.01000
C464        C  0.19594889  0.47226842  0.14791073    -0.11200
C465        C  0.19586564  0.47392646  0.20350782     0.03400
C466        C  0.19858246  0.52375690  0.23076781    -0.10600
H467        H  0.18951050  0.60364222  0.12277625     0.09000
H468        H  0.20131594  0.43373453  0.12807814     0.06600
H469        H  0.20148983  0.52552702  0.27355538     0.06400
C470        C  0.01475353  0.74068708  0.26422163     0.03500
C471        C  0.01872724  0.68414795  0.26388215    -0.12700
C472        C  0.97609450  0.65354414  0.28070763     0.01000
C473        C  0.93062069  0.67939784  0.30102479    -0.11200
C474        C  0.92150376  0.73402961  0.29405099     0.03400
C475        C  0.96454402  0.76603021  0.27777561    -0.10600
H476        H  0.05492712  0.66366756  0.24936413     0.09000
H477        H  0.89845543  0.65536219  0.31544683     0.06600
H478        H  0.95834431  0.80868115  0.27303543     0.06400
C479        C  0.26077011  0.71385255  0.94946685     0.03500
C480        C  0.31673813  0.70739499  0.95218928    -0.12700
C481        C  0.34492875  0.73494286  0.99061771     0.01000
C482        C  0.31828493  0.75381465  0.03618581    -0.11200
C483        C  0.26198540  0.75095864  0.04089913     0.03400
C484        C  0.23249470  0.73365779  0.99529839    -0.10600
H485        H  0.33878387  0.69315903  0.91729810     0.09000
H486        H  0.34162713  0.77250271  0.06720273     0.06600
H487        H  0.18918296  0.73814915  0.99453223     0.06400
C488        C  0.42055640  0.71837834  0.23633192     0.03500
C489        C  0.46661664  0.72083622  0.26999189    -0.12700
C490        C  0.51890729  0.71754416  0.24653742     0.01000
C491        C  0.52245830  0.71088940  0.19143005    -0.11200
C492        C  0.47910439  0.72943013  0.16138602     0.03400
C493        C  0.42936621  0.71410237  0.18106115    -0.10600
H494        H  0.46193680  0.72975185  0.31189401     0.09000
H495        H  0.56176989  0.70849743  0.17345589     0.06600
H496        H  0.39505719  0.71612069  0.15460632     0.06400
C497        C  0.18265490  0.77844408  0.44911040     0.03500
C498        C  0.12678603  0.78800467  0.45227100    -0.12700
C499        C  0.09867123  0.78206603  0.49938072     0.01000
C500        C  0.12855925  0.77515933  0.54582691    -0.11200
C501        C  0.18460919  0.77016783  0.54605875     0.03400
C502        C  0.21225955  0.76900967  0.49662611    -0.10600
H503        H  0.10421860  0.79520702  0.41627893     0.09000
H504        H  0.10807682  0.76867985  0.58263593     0.06600
H505        H  0.25535601  0.76248888  0.49530407     0.06400
C506        C  0.73247085  0.79821139  0.99481158     0.03500
C507        C  0.75438839  0.84889010  0.99965333    -0.12700
C508        C  0.77087693  0.87071896  0.04878139     0.01000
C509        C  0.76788061  0.83858687  0.09313402    -0.11200
C510        C  0.74191708  0.78972079  0.09151477     0.03400
C511        C  0.72519435  0.76820670  0.04154387    -0.10600
H512        H  0.75774584  0.87165313  0.96392847     0.09000
H513        H  0.78221427  0.85320006  0.13088822     0.06600
H514        H  0.70590773  0.73005874  0.03924261     0.06400
C515        C  0.25163206  0.30156097  0.46284375     0.03500
C516        C  0.27960901  0.34934298  0.47212397    -0.12700
C517        C  0.29885521  0.36512045  0.52226536     0.01000
C518        C  0.29552213  0.32826565  0.56265064    -0.11200
C519        C  0.26328679  0.28342500  0.55731892     0.03400
C520        C  0.24175986  0.26909154  0.50694943    -0.10600
H521        H  0.28273389  0.37693068  0.44030143     0.09000
H522        H  0.31158589  0.33838602  0.60139419     0.06600
H523        H  0.21661949  0.23494361  0.50263342     0.06400
C524        C  0.03552029  0.28219666  0.74906619     0.03500
C525        C  0.99063607  0.25132430  0.76050965    -0.12700
C526        C  0.93893404  0.27611709  0.76000170     0.01000
C527        C  0.93277678  0.33098012  0.75163564    -0.11200
C528        C  0.97655436  0.36323289  0.74313749     0.03400
C529        C  0.02694821  0.33722595  0.73813231    -0.10600
H530        H  0.99571726  0.20942505  0.76980728     0.09000
H531        H  0.89305847  0.34868738  0.75662796     0.06600
H532        H  0.06076819  0.36110977  0.72885001     0.06400
C533        C  0.27935869  0.03973620  0.75321493     0.03500
C534        C  0.32894420  0.03156490  0.72683374    -0.12700
C535        C  0.34411115  0.98116806  0.70507057     0.01000
C536        C  0.32270871  0.93707277  0.72873050    -0.11200
C537        C  0.27643459  0.94263226  0.76000912     0.03400
C538        C  0.25344473  0.99418287  0.77183070    -0.10600
H539        H  0.35068289  0.06588865  0.71450137     0.09000
H540        H  0.33670659  0.89746444  0.71569685     0.06600
H541        H  0.21505187  0.99834321  0.79163316     0.06400
C542        C  0.44921276  0.23558409  0.72978147     0.03500
C543        C  0.45763358  0.22065126  0.67597337    -0.12700
C544        C  0.50798856  0.22172936  0.65211124     0.01000
C545        C  0.55182635  0.23530672  0.68347966    -0.11200
C546        C  0.54624884  0.24624867  0.73799130     0.03400
C547        C  0.49455830  0.24752488  0.76147629    -0.10600
H548        H  0.42451873  0.20755377  0.65171967     0.09000
H549        H  0.59132710  0.23571123  0.66562196     0.06600
H550        H  0.48986644  0.25754288  0.80317561     0.06400
C551        C  0.28423480  0.54137997  0.73175427     0.03500
C552        C  0.34004874  0.53761619  0.72293592    -0.12700
C553        C  0.37023305  0.49143560  0.73505146     0.01000
C554        C  0.34303708  0.44622571  0.75015040    -0.11200
C555        C  0.28748371  0.44703136  0.75726364     0.03400
C556        C  0.25766445  0.49544279  0.74918918    -0.10600
H557        H  0.36128525  0.57275371  0.71172773     0.09000
H558        H  0.36559009  0.40973333  0.75839197     0.06600
H559        H  0.21481684  0.49727998  0.75615160     0.06400
C560        C  0.77948917  0.04818226  0.79292415     0.03500
C561        C  0.83535541  0.04482095  0.78543901    -0.12700
C562        C  0.85998478  0.00003145  0.76100054     0.01000
C563        C  0.82979585  0.95449835  0.75387776    -0.11200
C564        C  0.77661069  0.95201938  0.77255632     0.03400
C565        C  0.74997129  0.00048566  0.78963839    -0.10600
H566        H  0.85848410  0.08044268  0.79162655     0.09000
H567        H  0.84819209  0.92050029  0.73310151     0.06600
H568        H  0.70733733  0.00148179  0.79769225     0.06400
C569        C  0.04155366  0.76234244  0.80176975     0.03500
C570        C  0.05058080  0.76554923  0.85647241    -0.12700
C571        C  0.00939878  0.75761329  0.89232133     0.01000
C572        C  0.95714961  0.75325052  0.87245462    -0.11200
C573        C  0.94545271  0.75574936  0.81777671     0.03400
C574        C  0.98866503  0.75877976  0.78181199    -0.10600
H575        H  0.09139758  0.76835575  0.87103950     0.09000
H576        H  0.92544075  0.74488858  0.89986425     0.06600
H577        H  0.98162130  0.75624714  0.73950626     0.06400
C578        C  0.44284839  0.76661986  0.71482953     0.03500
C579        C  0.48769573  0.75832218  0.74871731    -0.12700
C580        C  0.53999174  0.76787480  0.72989842     0.01000
C581        C  0.54645690  0.78503426  0.67757904    -0.11200
C582        C  0.50209397  0.79761338  0.64525441     0.03400
C583        C  0.45087561  0.78766282  0.66456228    -0.10600
H584        H  0.48221951  0.74319820  0.78812601     0.09000
H585        H  0.58661523  0.78901276  0.66225132     0.06600
H586        H  0.41614263  0.79732447  0.64046976     0.06400
C587        C  0.76178631  0.55138227  0.84345310     0.03500
C588        C  0.78506058  0.55238538  0.89437857    -0.12700
C589        C  0.78870986  0.50741372  0.92561674     0.01000
C590        C  0.78021149  0.45772708  0.90028272    -0.11200
C591        C  0.76205130  0.45378480  0.84737538     0.03400
C592        C  0.74976569  0.50137463  0.81968710    -0.10600
H593        H  0.79632422  0.58983200  0.91203617     0.09000
H594        H  0.78443157  0.42144267  0.92261502     0.06600
H595        H  0.73305553  0.49943652  0.78010330     0.06400
C596        C  0.71529590  0.72245770  0.49163085     0.03500
C597        C  0.72735408  0.74174791  0.54339679    -0.12700
C598        C  0.73973883  0.70444893  0.58367167     0.01000
C599        C  0.74710230  0.65005751  0.56946039    -0.11200
C600        C  0.73787539  0.63177234  0.51746455     0.03400
C601        C  0.71622408  0.66734111  0.48123463    -0.10600
H602        H  0.72517405  0.78426562  0.55248924     0.09000
H603        H  0.76164401  0.62219135  0.59887069     0.06600
H604        H  0.70604474  0.65231083  0.44211368     0.06400
C605        C  0.98099130  0.01323849  0.38499026    -0.05800
C606        C  0.96665634  0.05024491  0.34605549    -0.16900
C607        C  0.92025646  0.04432902  0.31573516     0.11400
C608        C  0.88411929  0.00408462  0.32833424    -0.05700
C609        C  0.90141643  0.96393324  0.36330758    -0.17000
C610        C  0.95071088  0.96669759  0.38946361     0.11400
S611        S  0.90980330  0.08890051  0.26137631    -0.31900
S612        S  0.97130525  0.91119379  0.43020308    -0.31900
H613        H  0.02646618  0.92129209  0.42885755     0.29400
H614        H  0.87649659  0.05474866  0.23207525     0.29400
H615        H  0.99078434  0.08489917  0.34021296     0.20000
H616        H  0.87564723  0.93135354  0.37243667     0.20000
C617        C  0.24814441  0.07523025  0.41185512    -0.05800
C618        C  0.28978963  0.10889210  0.39948657    -0.16900
C619        C  0.33734057  0.08666433  0.37867445     0.11400
C620        C  0.33788349  0.03229724  0.36137949    -0.05700
C621        C  0.30858003  0.99917957  0.39420849    -0.17000
C622        C  0.25991211  0.01955852  0.41519269     0.11400
S623        S  0.38979946  0.13079513  0.36341933    -0.31900
S624        S  0.21445779  0.97538579  0.44689808    -0.31900
H625        H  0.24728307  0.92875577  0.44243452     0.29400
H626        H  0.41616674  0.09141859  0.33185047     0.29400
H627        H  0.28498735  0.15184287  0.40530655     0.20000
H628        H  0.31627253  0.95637872  0.39273246     0.20000
C629        C  0.99883955  0.01062211  0.66160187    -0.05800
C630        C  0.99125968  0.96360664  0.68952361    -0.16900
C631        C  0.95049082  0.96097598  0.72745230     0.11400
C632        C  0.91284370  0.00444585  0.73376166    -0.05700
C633        C  0.92256352  0.05214569  0.70729196    -0.17000
C634        C  0.96620998  0.05643216  0.67360992     0.11400
S635        S  0.95009284  0.90189371  0.76718865    -0.31900
S636        S  0.97528578  0.12060794  0.64378515    -0.31900
H637        H  0.03090954  0.11415067  0.63599383     0.29400
H638        H  0.92367632  0.92683876  0.81070620     0.29400
H639        H  0.01677602  0.92856962  0.68139497     0.20000
H640        H  0.89486099  0.08620545  0.71081221     0.20000
C641        C  0.27487501  0.02980250  0.60270663    -0.05800
C642        C  0.27756896  0.97334609  0.59942615    -0.16900
C643        C  0.32450058  0.94644201  0.61644404     0.11400
C644        C  0.36044631  0.97641258  0.64739553    -0.05700
C645        C  0.37035558  0.02558234  0.62426516    -0.17000
C646        C  0.32514684  0.05580644  0.60675191     0.11400
S647        S  0.33455629  0.87549732  0.60620957    -0.31900
S648        S  0.33259874  0.12596391  0.59565528    -0.31900
H649        H  0.38903206  0.12528089  0.59610047     0.29400
H650        H  0.29299646  0.87014432  0.56878643     0.29400
H651        H  0.24362451  0.95101441  0.58542500     0.20000
H652        H  0.40689345  0.04562609  0.63464519     0.20000
C653        C  0.48948410  0.81628890  0.96640478    -0.05800
C654        C  0.44675496  0.82538865  0.93130281    -0.16900
C655        C  0.39821588  0.80083403  0.94013079     0.11400
C656        C  0.39650983  0.75755022  0.97548015    -0.05700
C657        C  0.44463454  0.73777163  0.99723480    -0.17000
C658        C  0.49167712  0.76649409  0.99184081     0.11400
S659        S  0.33934748  0.83512054  0.91476086    -0.31900
S660        S  0.55397778  0.73404356  0.00975239    -0.31900
H661        H  0.58656053  0.77624394  0.99611812     0.29400
H662        H  0.30893458  0.83190696  0.96123271     0.29400
H663        H  0.44584848  0.86185110  0.90879164     0.20000
H664        H  0.44518766  0.70141080  0.01979474     0.20000
C665        C  0.31209513  0.00833271  0.03731616    -0.05800
C666        C  0.27312181  0.00428157  0.99748223    -0.16900
C667        C  0.22927262  0.04063139  0.99718801     0.11400
C668        C  0.22677258  0.08230152  0.03610254    -0.05700
C669        C  0.25721926  0.07520603  0.08286443    -0.17000
C670        C  0.30050480  0.03859927  0.08345132     0.11400
S671        S  0.18161143  0.03576122  0.94364675    -0.31900
S672        S  0.34841717  0.03960711  0.13735514    -0.31900
H673        H  0.32664249  0.08501187  0.16376634     0.29400
H674        H  0.14366739  0.07197161  0.96667238     0.29400
H675        H  0.28070742  0.97842318  0.96314940     0.20000
H676        H  0.25387083  0.10370618  0.11547705     0.20000
C677        C  0.77904328  0.92988692  0.05516257    -0.05800
C678        C  0.78344876  0.95772884  0.00757364    -0.16900
C679        C  0.73821841  0.98674807  0.98943951     0.11400
C680        C  0.69396199  0.99397557  0.02373338    -0.05700
C681        C  0.70125704  0.98463864  0.07775460    -0.17000
C682        C  0.74703094  0.95645277  0.09432791     0.11400
S683        S  0.73664929  0.00781110  0.92186492    -0.31900
S684        S  0.75970290  0.95193354  0.16417292    -0.31900
H685        H  0.81420523  0.93685258  0.15785109     0.29400
H686        H  0.69272617  0.04403712  0.92770377     0.29400
H687        H  0.81423621  0.94542141  0.97926679     0.20000
H688        H  0.67025286  0.99624198  0.10613228     0.20000
C689        C  0.50214464  0.19430796  0.98289856    -0.05800
C690        C  0.48813163  0.23453986  0.02022361    -0.16900
C691        C  0.51825912  0.28089836  0.02348476     0.11400
C692        C  0.56414320  0.28409755  0.99193710    -0.05700
C693        C  0.56503822  0.25293653  0.94441462    -0.17000
C694        C  0.53456647  0.20739423  0.93999577     0.11400
S695        S  0.49630132  0.33617538  0.06475222    -0.31900
S696        S  0.54658924  0.16200739  0.88452500    -0.31900
H697        H  0.49936902  0.13352542  0.89086760     0.29400
H698        H  0.54039063  0.36751483  0.05401971     0.29400
H699        H  0.45735641  0.22789420  0.04898487     0.20000
H700        H  0.59498062  0.25797043  0.91432700     0.20000
C701        C  0.97154108  0.42298915  0.75328079    -0.05800
C702        C  0.01590638  0.44770197  0.77716631    -0.16900
C703        C  0.00978831  0.47268566  0.82702788     0.11400
C704        C  0.95844500  0.47522766  0.85013290    -0.05700
C705        C  0.91351249  0.46791390  0.81772610    -0.17000
C706        C  0.92070941  0.44618531  0.76658693     0.11400
S707        S  0.06775695  0.49354225  0.86427773    -0.31900
S708        S  0.86445358  0.44459618  0.72166022    -0.31900
H709        H  0.89462029  0.42367273  0.67846700     0.29400
H710        H  0.10495608  0.48647132  0.82273170     0.29400
H711        H  0.05603726  0.43992581  0.76250421     0.20000
H712        H  0.87357446  0.47615277  0.83296307     0.20000
C713        C  0.97259285  0.27813575  0.04177349    -0.05800
C714        C  0.01827960  0.24483481  0.04888978    -0.16900
C715        C  0.01368007  0.19763265  0.07714602     0.11400
C716        C  0.96600478  0.19042085  0.10581873    -0.05700
C717        C  0.91899011  0.21106318  0.08141117    -0.17000
C718        C  0.92181261  0.25722905  0.05143922     0.11400
S719        S  0.06900075  0.14979589  0.07869720    -0.31900
S720        S  0.86028244  0.29295917  0.03566850    -0.31900
H721        H  0.88067077  0.31940654  0.99195510     0.29400
H722        H  0.04162272  0.11239933  0.10853260     0.29400
H723        H  0.05733832  0.25720507  0.03610538     0.20000
H724        H  0.87978626  0.19857130  0.09320517     0.20000
C725        C  0.01610357  0.66131986  0.02369036    -0.05800
C726        C  0.98142493  0.70653383  0.02665494    -0.16900
C727        C  0.98522443  0.74681312  0.98907454     0.11400
C728        C  0.02219170  0.73931385  0.94697513    -0.05700
C729        C  0.06432227  0.70100196  0.95268986    -0.17000
C730        C  0.06205017  0.66242507  0.99160855     0.11400
S731        S  0.93990652  0.80455845  0.99192098    -0.31900
S732        S  0.11211943  0.60862114  0.99271783    -0.31900
H733        H  0.15034964  0.63399340  0.96192583     0.29400
H734        H  0.91701885  0.79340413  0.04116804     0.29400
H735        H  0.94757873  0.70682971  0.05342995     0.20000
H736        H  0.09487800  0.69585317  0.92257273     0.20000
C737        C  0.99030196  0.49381730  0.22302950    -0.05800
C738        C  0.94013758  0.51992883  0.21943927    -0.16900
C739        C  0.93334243  0.57222451  0.23913081     0.11400
C740        C  0.97521245  0.59514857  0.26961093    -0.05700
C741        C  0.01894810  0.56230114  0.28502763    -0.17000
C742        C  0.02593623  0.51073628  0.26260536     0.11400
S743        S  0.87649332  0.61106076  0.21464918    -0.31900
S744        S  0.08272035  0.46865906  0.27938965    -0.31900
H745        H  0.10346850  0.50312277  0.31862546     0.29400
H746        H  0.84485528  0.56749616  0.19997178     0.29400
H747        H  0.91171405  0.50514787  0.19047858     0.20000
H748        H  0.04932429  0.57835447  0.31108021     0.20000
C749        C  0.30606521  0.48058650  0.00665430    -0.05800
C750        C  0.26127185  0.44807968  0.00765879    -0.16900
C751        C  0.21382257  0.46745229  0.03222369     0.11400
C752        C  0.21514330  0.51599368  0.06191056    -0.05700
C753        C  0.25365249  0.55297110  0.04728783    -0.17000
C754        C  0.29898930  0.53562762  0.01891884     0.11400
S755        S  0.15405301  0.42856651  0.03059224    -0.31900
S756        S  0.35180443  0.58234809  0.01044339    -0.31900
H757        H  0.37582860  0.55458581  0.96721337     0.29400
H758        H  0.17244915  0.39199425  0.99103801     0.29400
H759        H  0.26498488  0.40669272  0.99433239     0.20000
H760        H  0.25382438  0.59288432  0.06457846     0.20000
C761        C  0.54850838  0.51506947  0.29750949    -0.05800
C762        C  0.52912276  0.55534048  0.26360048    -0.16900
C763        C  0.49749869  0.54162851  0.22011193     0.11400
C764        C  0.48590932  0.48758448  0.21111430    -0.05700
C765        C  0.49078313  0.45223192  0.25308544    -0.17000
C766        C  0.51945769  0.46731016  0.29845881     0.11400
S767        S  0.48557454  0.59040123  0.16987653    -0.31900
S768        S  0.52395509  0.42199271  0.35286971    -0.31900
H769        H  0.55141491  0.45732397  0.38670736     0.29400
H770        H  0.43795168  0.56822460  0.15092736     0.29400
H771        H  0.54580356  0.59470992  0.26429535     0.20000
H772        H  0.47764409  0.41172849  0.24819768     0.20000
C773        C  0.49988463  0.47469215  0.83027726    -0.05800
C774        C  0.49712637  0.43742851  0.78808454    -0.16900
C775        C  0.46222930  0.44759529  0.74544975     0.11400
C776        C  0.42859813  0.49424076  0.74760731    -0.05700
C777        C  0.44342442  0.53659275  0.78161238    -0.17000
C778        C  0.47879552  0.52702548  0.82353483     0.11400
S779        S  0.45420950  0.39773935  0.69337644    -0.31900
S780        S  0.48687766  0.57798575  0.87462339    -0.31900
H781        H  0.46215062  0.62033724  0.84695463     0.29400
H782        H  0.49509126  0.36220724  0.71071957     0.29400
H783        H  0.51569750  0.39803789  0.79225404     0.20000
H784        H  0.42042851  0.57396747  0.78196559     0.20000
C785        C  0.69099620  0.49288987  0.03211774    -0.05800
C786        C  0.70380597  0.54621735  0.02397405    -0.16900
C787        C  0.75502383  0.55733269  0.00570993     0.11400
C788        C  0.78740240  0.51408458  0.98525488    -0.05700
C789        C  0.78355625  0.46669586  0.01357039    -0.17000
C790        C  0.73344673  0.45447405  0.03468815     0.11400
S791        S  0.77651162  0.62538729  0.00835250    -0.31900
S792        S  0.72326618  0.39026519  0.06198898    -0.31900
H793        H  0.77788799  0.37528150  0.06557553     0.29400
H794        H  0.83078859  0.61145556  0.99865273     0.29400
H795        H  0.67389991  0.57815409  0.02965207     0.20000
H796        H  0.81411230  0.43529150  0.00848397     0.20000
C797        C  0.04070412  0.76761061  0.49842409    -0.05800
C798        C  0.02512767  0.73308256  0.45669741    -0.16900
C799        C  0.00308212  0.68422556  0.46839401     0.11400
C800        C  0.99662786  0.67113572  0.52198115    -0.05700
C801        C  0.99553531  0.71238932  0.56044139    -0.17000
C802        C  0.01326644  0.76291937  0.54700550     0.11400
S803        S  0.99570253  0.63554030  0.41539628    -0.31900
S804        S  0.01003604  0.81671612  0.59571488    -0.31900
H805        H  0.03020774  0.85517238  0.56172149     0.29400
H806        H  0.95525546  0.60755770  0.44051735     0.29400
H807        H  0.03885385  0.73835909  0.41662905     0.20000
H808        H  0.98601817  0.70423416  0.60122933     0.20000
C809        C  0.21528643  0.48987106  0.53033019    -0.05800
C810        C  0.25251380  0.48963046  0.48872991    -0.16900
C811        C  0.30103571  0.46035293  0.49398575     0.11400
C812        C  0.30521651  0.42385701  0.53580750    -0.05700
C813        C  0.28054975  0.44199743  0.58350602    -0.17000
C814        C  0.23320433  0.47346304  0.58060216     0.11400
S815        S  0.34977868  0.46023239  0.44151505    -0.31900
S816        S  0.19041523  0.47896060  0.63789739    -0.31900
H817        H  0.16194939  0.52504639  0.62135010     0.29400
H818        H  0.38577352  0.42415550  0.46631568     0.29400
H819        H  0.24179808  0.50700532  0.45109592     0.20000
H820        H  0.28939576  0.42249481  0.62045796     0.20000
C821        C  0.00968279  0.30928011  0.52307237    -0.05800
C822        C  0.99253367  0.26202302  0.49851418    -0.16900
C823        C  0.94248888  0.24203717  0.51177353     0.11400
C824        C  0.91040124  0.27052486  0.54966144    -0.05700
C825        C  0.93454522  0.30825035  0.58311066    -0.17000
C826        C  0.98536462  0.32615777  0.57151498     0.11400
S827        S  0.91778108  0.18403634  0.47677682    -0.31900
S828        S  0.00873731  0.38231937  0.61006926    -0.31900
H829        H  0.06253531  0.36403382  0.60927981     0.29400
H830        H  0.96635812  0.16941772  0.45130147     0.29400
H831        H  0.01301236  0.24685074  0.46326789     0.20000
H832        H  0.91163969  0.32870119  0.61429153     0.20000
C833        C  0.75832267  0.57810528  0.49929026    -0.05800
C834        C  0.75071874  0.53396193  0.53178197    -0.16900
C835        C  0.78585651  0.48924761  0.52837135     0.11400
C836        C  0.82785017  0.48907334  0.49135312    -0.05700
C837        C  0.82497344  0.52496001  0.44979349    -0.17000
C838        C  0.79378099  0.57197398  0.45532221     0.11400
S839        S  0.78298263  0.43933337  0.57849760    -0.31900
S840        S  0.81083209  0.62675355  0.41340891    -0.31900
H841        H  0.83418354  0.59523133  0.37219611     0.29400
H842        H  0.81873287  0.40255728  0.55298670     0.29400
H843        H  0.72214030  0.53712123  0.56401937     0.20000
H844        H  0.85667550  0.52306744  0.42045376     0.20000
C845        C  0.51537737  0.20255619  0.59600435    -0.05800
C846        C  0.55764160  0.16558415  0.58454020    -0.16900
C847        C  0.56076747  0.13819301  0.53560596     0.11400
C848        C  0.51984091  0.14616709  0.49771789    -0.05700
C849        C  0.47957711  0.18551950  0.50740946    -0.17000
C850        C  0.47817981  0.21522766  0.55514428     0.11400
S851        S  0.61537109  0.09048606  0.52266994    -0.31900
S852        S  0.42853469  0.26905859  0.56088452    -0.31900
H853        H  0.45776067  0.29987263  0.59749500     0.29400
H854        H  0.64172411  0.09700128  0.57160057     0.29400
H855        H  0.58673912  0.15584049  0.61495820     0.20000
H856        H  0.44843344  0.19231418  0.47808444     0.20000
C857        C  0.49764824  0.14891997  0.21943667    -0.05800
C858        C  0.44575777  0.16556111  0.20391606    -0.16900
C859        C  0.43978947  0.20366832  0.16447077     0.11400
C860        C  0.48450454  0.23404610  0.15220434    -0.05700
C861        C  0.53354119  0.20472405  0.15197600    -0.17000
C862        C  0.54103624  0.16253175  0.18688525     0.11400
S863        S  0.37819430  0.21205648  0.12800228    -0.31900
S864        S  0.60476305  0.12660636  0.18507335    -0.31900
H865        H  0.59954035  0.09722598  0.23129818     0.29400
H866        H  0.34962975  0.17482147  0.15649880     0.29400
H867        H  0.41105405  0.14684175  0.22019800     0.20000
H868        H  0.56799952  0.21953148  0.13222065     0.20000
C869        C  0.48688234  0.87612818  0.21294030    -0.05800
C870        C  0.53396554  0.85594693  0.18928662    -0.16900
C871        C  0.53131511  0.81410287  0.15185975     0.11400
C872        C  0.48225852  0.78731592  0.14564390    -0.05700
C873        C  0.43580020  0.81975269  0.15441054    -0.17000
C874        C  0.43780211  0.86385446  0.18906135     0.11400
S875        S  0.59114290  0.79248261  0.11761283    -0.31900
S876        S  0.37870740  0.90442349  0.20192182    -0.31900
H877        H  0.34757376  0.88194810  0.16112273     0.29400
H878        H  0.61478525  0.84287014  0.12025955     0.29400
H879        H  0.57230223  0.87191194  0.20074908     0.20000
H880        H  0.39704735  0.80609769  0.14172026     0.20000
C881        C  0.50434002  0.87591614  0.49354325    -0.05800
C882        C  0.54404233  0.88654603  0.53166712    -0.16900
C883        C  0.54395762  0.86292822  0.58136424     0.11400
C884        C  0.50760362  0.82193027  0.59167213    -0.05700
C885        C  0.47162065  0.80724676  0.55088901    -0.17000
C886        C  0.46739867  0.83578281  0.50360559     0.11400
S887        S  0.58585785  0.89319886  0.63128057    -0.31900
S888        S  0.41133433  0.82451705  0.45963246    -0.31900
H889        H  0.38559169  0.78712091  0.49078933     0.29400
H890        H  0.54610069  0.89431675  0.67076407     0.29400
H891        H  0.57177269  0.91819156  0.52479015     0.20000
H892        H  0.44431296  0.77528342  0.55732230     0.20000
loop_ 
_geom_bond_atom_site_label_1 
_geom_bond_atom_site_label_2 
_geom_bond_distance 
_geom_bond_site_symmetry_2 
_ccdc_geom_bond_type 
N1            C6   1.343   1_545  A
N1            C5   1.344       .  A
N1           H33   1.029       .  S
N2            C9   1.352       .  A
N2           C10   1.354       .  A
N3            C8   1.353   1_545  A
N3            C7   1.352       .  A
N3           H34   1.040       .  S
N4           C11   1.350       .  A
N4           C12   1.355       .  A
C5           C13   1.389       .  A
C5           C21   1.401       .  A
C6           C22   1.400       .  A
C6           C14   1.389       .  A
C7           C15   1.389       .  A
C7           C24   1.415       .  A
C8           C23   1.413       .  A
C8           C16   1.386       .  A
C9           C21   1.422       .  A
C9           C17   1.374       .  A
C10          C24   1.415       .  A
C10          C18   1.383       .  A
C11          C19   1.375       .  A
C11          C22   1.421       .  A
C12          C20   1.382       .  A
C12          C23   1.414       .  A
C13          C14   1.360   1_545  A
C13          H25   1.083       .  S
C14          H26   1.083       .  S
C15          C16   1.371   1_545  A
C15          H27   1.082       .  S
C16          H28   1.083       .  S
C17          C18   1.373       .  A
C17          H29   1.064       .  S
C18          H30   1.082       .  S
C19          C20   1.374       .  A
C19          H31   1.063       .  S
C20          H32   1.082       .  S
C21         C857   1.476       .  S
C22         C869   1.476       .  S
C23         C881   1.501       .  S
C24         C848   1.491       .  S
N35          C40   1.349       .  A
N35          C39   1.343       .  A
N35          H67   1.041       .  S
N36          C43   1.350       .  A
N36          C44   1.350       .  A
N37          C42   1.356       .  A
N37          C41   1.351       .  A
N37          H68   1.042       .  S
N38          C45   1.341       .  A
N38          C46   1.338       .  A
C39          C47   1.380       .  A
C39          C55   1.396   1_655  A
C40          C56   1.418       .  A
C40          C48   1.391       .  A
C41          C49   1.390       .  A
C41          C58   1.421       .  A
C42          C57   1.406       .  A
C42          C50   1.379       .  A
C43          C55   1.416       .  A
C43          C51   1.387       .  A
C44          C58   1.404       .  A
C44          C52   1.384       .  A
C45          C53   1.382       .  A
C45          C56   1.400       .  A
C46          C54   1.391       .  A
C46          C57   1.399   1_655  A
C47          C48   1.376       .  A
C47          H59   1.082       .  S
C48          H60   1.078       .  S
C49          C50   1.372       .  A
C49          H61   1.073       .  S
C50          H62   1.083       .  S
C51          C52   1.373       .  A
C51          H63   1.080       .  S
C52          H64   1.082       .  S
C53          C54   1.381       .  A
C53          H65   1.082       .  S
C54          H66   1.082       .  S
C55         C800   1.477   1_455  S
C56         C836   1.476       .  S
C57         C821   1.483       .  S
C58         C809   1.482       .  S
N69          C74   1.354       .  A
N69          C73   1.354       .  A
N69         H101   1.037       .  S
N70          C77   1.352       .  A
N70          C78   1.350       .  A
N71          C76   1.348       .  A
N71          C75   1.348       .  A
N71         H102   1.032       .  S
N72          C79   1.346       .  A
N72          C80   1.352       .  A
C73          C81   1.390       .  A
C73          C89   1.424   1_556  A
C74          C90   1.415       .  A
C74          C82   1.385       .  A
C75          C83   1.386       .  A
C75          C92   1.409       .  A
C76          C91   1.418       .  A
C76          C84   1.390       .  A
C77          C89   1.409       .  A
C77          C85   1.382       .  A
C78          C92   1.424       .  A
C78          C86   1.388       .  A
C79          C87   1.389       .  A
C79          C90   1.421       .  A
C80          C88   1.379       .  A
C80          C91   1.405   1_556  A
C81          C82   1.372       .  A
C81          H93   1.079       .  S
C82          H94   1.083       .  S
C83          C84   1.372       .  A
C83          H95   1.082       .  S
C84          H96   1.080       .  S
C85          C86   1.366       .  A
C85          H97   1.082       .  S
C86          H98   1.075       .  S
C87          C88   1.367       .  A
C87          H99   1.072       .  S
C88         H100   1.082       .  S
C89         C785   1.487       .  S
C90         C773   1.485       .  S
C91         C749   1.484       .  S
C92         C764   1.479       .  S
N103        C108   1.352       .  A
N103        C107   1.353       .  A
N103        H135   1.040   1_556  S
N104        C111   1.348   1_455  A
N104        C112   1.352   1_455  A
N105        C110   1.351       .  A
N105        C109   1.347       .  A
N105        H136   1.042   1_455  S
N106        C113   1.346       .  A
N106        C114   1.346       .  A
C107        C115   1.383       .  A
C107        C123   1.407   1_556  A
C108        C124   1.421       .  A
C108        C116   1.391       .  A
C109        C117   1.386       .  A
C109        C126   1.409       .  A
C110        C125   1.410   1_455  A
C110        C118   1.385       .  A
C111        C123   1.414       .  A
C111        C119   1.390       .  A
C112        C126   1.404   1_655  A
C112        C120   1.382       .  A
C113        C121   1.383       .  A
C113        C124   1.402       .  A
C114        C122   1.391       .  A
C114        C125   1.414   1_556  A
C115        C116   1.376       .  A
C115        H127   1.082       .  S
C116        H128   1.081       .  S
C117        C118   1.377       .  A
C117        H129   1.080       .  S
C118        H130   1.082       .  S
C119        C120   1.375       .  A
C119        H131   1.079       .  S
C120        H132   1.083       .  S
C121        C122   1.372       .  A
C121        H133   1.082       .  S
C122        H134   1.080       .  S
C123        C713   1.479       .  S
C124        C704   1.478       .  S
C125        C725   1.481   1_655  S
C126        C737   1.481   1_455  S
N137        C142   1.354   1_554  A
N137        C141   1.345   1_554  A
N137        H169   1.043       .  S
N138        C145   1.346       .  A
N138        C146   1.347       .  A
N139        C144   1.345       .  A
N139        C143   1.351   1_554  A
N139        H170   1.041       .  S
N140        C147   1.346       .  A
N140        C148   1.347       .  A
C141        C149   1.386       .  A
C141        C157   1.409   1_566  A
C142        C158   1.411       .  A
C142        C150   1.383       .  A
C143        C151   1.382       .  A
C143        C160   1.401       .  A
C144        C159   1.411       .  A
C144        C152   1.390   1_554  A
C145        C157   1.401       .  A
C145        C153   1.385       .  A
C146        C160   1.409   1_554  A
C146        C154   1.387       .  A
C147        C155   1.383       .  A
C147        C158   1.415   1_554  A
C148        C156   1.380       .  A
C148        C159   1.400   1_565  A
C149        C150   1.384       .  A
C149        H161   1.080       .  S
C150        H162   1.081       .  S
C151        C152   1.375       .  A
C151        H163   1.082       .  S
C152        H164   1.079       .  S
C153        C154   1.373       .  A
C153        H165   1.082       .  S
C154        H166   1.081       .  S
C155        C156   1.372       .  A
C155        H167   1.073       .  S
C156        H168   1.082       .  S
C157        C680   1.469   1_545  S
C158        C653   1.498       .  S
C159        C665   1.471       .  S
C160        C689   1.479       .  S
O171        C187   1.271       .  A
O171       Zn177   1.977       .  S
C172        C506   1.498       .  S
C172        O188   1.270       .  A
C172        O185   1.287       .  A
O173        C186   1.279       .  A
O173       Cd180   2.141       .  S
O174        C192   1.288       .  A
O174       Cd183   2.135       .  S
O175        C189   1.275       .  A
O175       Cd179   2.039       .  S
O176        C187   1.279       .  A
O176       Cd179   2.135       .  S
Zn177       O188   2.026       .  S
Zn177       O190   1.938       .  S
Zn177       O182   1.907       .  S
O178        C189   1.282       .  A
O178       Cd183   2.144       .  S
Cd179       O181   2.110       .  S
Cd179       O182   2.021       .  S
Cd180       O184   2.085       .  S
Cd180       O193   2.091       .  S
Cd180       O182   2.024       .  S
O181        C191   1.278       .  A
O182       Cd183   2.030       .  S
Cd183       O185   2.152       .  S
O184        C191   1.278       .  A
C186        C587   1.493       .  S
C186        O190   1.267       .  A
C187        C573   1.497       .  S
C189        C564   1.499       .  S
C191        C598   1.487       .  S
C192        C580   1.488       .  S
C192        O193   1.280       .  A
O194        C210   1.278       .  A
O194       Zn200   2.042       .  S
C195        C537   1.464       .  S
C195        O211   1.277       .  A
C195        O208   1.268       .  A
O196        C209   1.278       .  A
O196       Cd203   2.128       .  S
O197        C215   1.276       .  A
O197       Cd206   2.105       .  S
O198        C212   1.277       .  A
O198       Cd202   2.147       .  S
O199        C210   1.281       .  A
O199       Cd202   2.082       .  S
Zn200       O211   2.051       .  S
Zn200       O213   2.033       .  S
Zn200       O205   1.935       .  S
O201        C212   1.268       .  A
O201       Cd206   2.008       .  S
Cd202       O204   2.121       .  S
Cd202       O205   2.040       .  S
Cd203       O207   2.082       .  S
Cd203       O216   2.084       .  S
Cd203       O205   2.002       .  S
O204        C214   1.282       .  A
O205       Cd206   1.982       .  S
Cd206       O208   2.045       .  S
O207        C214   1.282       .  A
C209        C501   1.499       .  S
C209        O213   1.282       .  A
C210        C569   1.469       .  S
C212        C479   1.487       .  S
C214        C551   1.495       .  S
C215        C578   1.490       .  S
C215        O216   1.280       .  A
O217        C233   1.281       .  A
O217       Zn223   2.112       .  S
C218        C434   1.478       .  S
C218        O234   1.283       .  A
C218        O231   1.273       .  A
O219        C232   1.279       .  A
O219       Cd226   2.071       .  S
O220        C238   1.277       .  A
O220       Cd229   2.065       .  S
O221        C235   1.277       .  A
O221       Cd225   2.083       .  S
O222        C233   1.273       .  A
O222       Cd225   2.022       .  S
Zn223       O234   2.032       .  S
Zn223       O236   2.078       .  S
Zn223       O228   1.934       .  S
O224        C235   1.277       .  A
O224       Cd229   2.080       .  S
Cd225       O227   2.065       .  S
Cd225       O228   1.950       .  S
Cd226       O230   2.119       .  S
Cd226       O239   2.119       .  S
Cd226       O228   2.017       .  S
O227        C237   1.271       .  A
O228       Cd229   1.990       .  S
Cd229       O231   2.090       .  S
O230        C237   1.280       .  A
C232        C546   1.477       .  S
C232        O236   1.285       .  A
C233        C560   1.490       .  S
C235        C526   1.467       .  S
C237        C456   1.473       .  S
C238        C591   1.491       .  S
C238        O239   1.280       .  A
O240        C256   1.270       .  A
O240       Zn246   2.055       .  S
C241        C542   1.502       .  S
C241        O257   1.269       .  A
C241        O254   1.282       .  A
O242        C255   1.282       .  A
O242       Cd249   2.162       .  S
O243        C261   1.287       .  A
O243       Cd252   2.153       .  S
O244        C258   1.271       .  A
O244       Cd248   2.075       .  S
O245        C256   1.271       .  A
O245       Cd248   2.059       .  S
Zn246       O257   1.959       .  S
Zn246       O259   1.965       .  S
Zn246       O251   1.910       .  S
O247        C258   1.284       .  A
O247       Cd252   2.109       .  S
Cd248       O250   1.999       .  S
Cd248       O251   1.981       .  S
Cd249       O253   2.170       .  S
Cd249       O262   2.072       .  S
Cd249       O251   2.037       .  S
O250        C260   1.269       .  A
O251       Cd252   2.045       .  S
Cd252       O254   2.158       .  S
O253        C260   1.288       .  A
C255        C533   1.505       .  S
C255        O259   1.271       .  A
C256        C519   1.479       .  S
C258        C555   1.488       .  S
C260        C524   1.498       .  S
C261        C407   1.495       .  S
C261        O262   1.279       .  A
O263        C279   1.278       .  A
O263       Zn269   2.094       .  S
C264        C474   1.480       .  S
C264        O280   1.280       .  A
C264        O277   1.274       .  A
O265        C278   1.270       .  A
O265       Cd272   2.037       .  S
O266        C284   1.277       .  A
O266       Cd275   2.108       .  S
O267        C281   1.283       .  A
O267       Cd271   2.139       .  S
O268        C279   1.277       .  A
O268       Cd271   2.080       .  S
Zn269       O280   2.021       .  S
Zn269       O282   2.076       .  S
Zn269       O274   1.961       .  S
O270        C281   1.277       .  A
O270       Cd275   2.026       .  S
Cd271       O273   2.113       .  S
Cd271       O274   1.973       .  S
Cd272       O276   2.085       .  S
Cd272       O285   2.072       .  S
Cd272       O274   1.986       .  S
O273        C283   1.287       .  A
O274       Cd275   1.996       .  S
Cd275       O277   2.103       .  S
O276        C283   1.271       .  A
C278        C443   1.467       .  S
C278        O282   1.281       .  A
C279        C510   1.495       .  S
C281        C429   1.489       .  S
C283        C490   1.492       .  S
C284        C596   1.477       .  S
C284        O285   1.273       .  A
O286        C302   1.278       .  A
O286       Zn292   2.037       .  S
C287        C370   1.493       .  S
C287        O303   1.276       .  A
C287        O300   1.283       .  A
O288        C301   1.281       .  A
O288       Cd295   2.148       .  S
O289        C307   1.279       .  A
O289       Cd298   2.070       .  S
O290        C304   1.277       .  A
O290       Cd294   2.070       .  S
O291        C302   1.276       .  A
O291       Cd294   2.121       .  S
Zn292       O303   2.022       .  S
Zn292       O305   2.020       .  S
Zn292       O297   1.903       .  S
O293        C304   1.284       .  A
O293       Cd298   2.150       .  S
Cd294       O296   1.996       .  S
Cd294       O297   2.004       .  S
Cd295       O299   2.147       .  S
Cd295       O308   2.154       .  S
Cd295       O297   2.073       .  S
O296        C306   1.267       .  A
O297       Cd298   2.014       .  S
Cd298       O300   2.144       .  S
O299        C306   1.283       .  A
C301        C488   1.501       .  S
C301        O305   1.276       .  A
C302        C483   1.507       .  S
C304        C470   1.500       .  S
C306        C461   1.487       .  S
C307        C497   1.496       .  S
C307        O308   1.287       .  A
O309        C325   1.284       .  A
O309       Zn315   2.030       .  S
C310        C438   1.506       .  S
C310        O326   1.280       .  A
C310        O323   1.280       .  A
O311        C324   1.271       .  A
O311       Cd318   2.038       .  S
O312        C330   1.283       .  A
O312       Cd321   2.110       .  S
O313        C327   1.274       .  A
O313       Cd317   2.041       .  S
O314        C325   1.279       .  A
O314       Cd317   2.115       .  S
Zn315       O326   2.092       .  S
Zn315       O328   2.114       .  S
Zn315       O320   1.947       .  S
O316        C327   1.281       .  A
O316       Cd321   2.112       .  S
Cd317       O319   2.154       .  S
Cd317       O320   2.020       .  S
Cd318       O322   2.026       .  S
Cd318       O331   2.070       .  S
Cd318       O320   1.950       .  S
O319        C329   1.281       .  A
O320       Cd321   2.014       .  S
Cd321       O323   2.127       .  S
O322        C329   1.271       .  A
C324        C425   1.488       .  S
C324        O328   1.281       .  A
C325        C420   1.496       .  S
C327        C445   1.471       .  S
C329        C452   1.500       .  S
C330        C402   1.475       .  S
C330        O331   1.274       .  A
N332        C337   1.334       .  A
N332        C336   1.344       .  A
N332        H364   1.044       .  S
N333        C340   1.348       .  A
N333        C341   1.346       .  A
N334        C339   1.356       .  A
N334        C338   1.354       .  A
N334        H365   1.042       .  S
N335        C342   1.348       .  A
N335        C343   1.342       .  A
C336        C344   1.385       .  A
C336        C352   1.396       .  A
C337        C353   1.401       .  A
C337        C345   1.392       .  A
C338        C346   1.385   1_455  A
C338        C355   1.415       .  A
C339        C354   1.421       .  A
C339        C347   1.389   1_455  A
C340        C352   1.406       .  A
C340        C348   1.383       .  A
C341        C355   1.406       .  A
C341        C349   1.385       .  A
C342        C350   1.380   1_545  A
C342        C353   1.418       .  A
C343        C351   1.385   1_545  A
C343        C354   1.405       .  A
C344        C345   1.374       .  A
C344        H356   1.082       .  S
C345        H357   1.083       .  S
C346        C347   1.372       .  A
C346        H358   1.082       .  S
C347        H359   1.082       .  S
C348        C349   1.375       .  A
C348        H360   1.076       .  S
C349        H361   1.082       .  S
C350        C351   1.381       .  A
C350        H362   1.070       .  S
C351        H363   1.081       .  S
C352        C617   1.473       .  S
C353        C641   1.505       .  S
C354        C629   1.485   1_455  S
C355        C605   1.489   1_455  S
C366        C367   1.394       .  A
C366        C371   1.426       .  A
C366        C396   1.486       .  S
C367        C368   1.394       .  A
C367        H372   1.079       .  S
C368        C369   1.404   1_545  A
C368        C620   1.510       .  S
C369        C370   1.410       .  A
C369        H373   1.084       .  S
C370        C371   1.426   1_565  A
C371        H374   1.082       .  S
O375        C391   1.276       .  A
O375       Zn381   1.993       .  S
C376        C411   1.477       .  S
C376        O392   1.272       .  A
C376        O389   1.272       .  A
O377        C390   1.285       .  A
O377       Cd384   2.143       .  S
O378        C396   1.274       .  A
O378       Cd387   2.066       .  S
O379        C393   1.272       .  A
O379       Cd383   2.106       .  S
O380        C391   1.276       .  A
O380       Cd383   2.097       .  S
Zn381       O392   2.045       .  S
Zn381       O394   2.000       .  S
Zn381       O386   1.929       .  S
O382        C393   1.276       .  A
O382       Cd387   2.079       .  S
Cd383       O385   2.028       .  S
Cd383       O386   2.014       .  S
Cd384       O388   2.188       .  S
Cd384       O397   2.134       .  S
Cd384       O386   2.044       .  S
O385        C395   1.275       .  A
O386       Cd387   1.977       .  S
Cd387       O389   2.088       .  S
O388        C395   1.290       .  A
C390        C398   1.488       .  S
C390        O394   1.275       .  A
C391        C465   1.479       .  S
C393        C416   1.486       .  S
C395        C515   1.514       .  S
C396        O397   1.284       .  A
C398        C399   1.408       .  A
C398        C403   1.412   1_455  A
C399        C400   1.410   1_455  A
C399        H404   1.078       .  S
C400        C401   1.404       .  A
C400        C716   1.516       .  S
C401        C402   1.399       .  A
C401        H405   1.081       .  S
C402        C403   1.415       .  A
C403        H406   1.083       .  S
C407        C408   1.409       .  A
C407        C412   1.420   1_556  A
C408        C409   1.406   1_556  A
C408        H413   1.081       .  S
C409        C410   1.395       .  A
C409        C668   1.498       .  S
C410        C411   1.397       .  A
C410        H414   1.085       .  S
C411        C412   1.420       .  A
C412        H415   1.083       .  S
C416        C417   1.404       .  A
C416        C421   1.433       .  A
C417        C418   1.390       .  A
C417        H422   1.084       .  S
C418        C419   1.392       .  A
C418        C860   1.510       .  S
C419        C420   1.405       .  A
C419        H423   1.084       .  S
C420        C421   1.433       .  A
C421        H424   1.082       .  S
C425        C426   1.408       .  A
C425        C430   1.424       .  A
C426        C427   1.389       .  A
C426        H431   1.083       .  S
C427        C428   1.385   1_545  A
C427        C608   1.491       .  S
C428        C429   1.411       .  A
C428        H432   1.085       .  S
C429        C430   1.423   1_565  A
C430        H433   1.083       .  S
C434        C435   1.393       .  A
C434        C439   1.419   1_556  A
C435        C436   1.385   1_556  A
C435        H440   1.086       .  S
C436        C437   1.418       .  A
C436        C692   1.504   1_554  S
C437        C438   1.421       .  A
C437        H441   1.076       .  S
C438        C439   1.424       .  A
C439        H442   1.082       .  S
C443        C444   1.412       .  A
C443        C448   1.407       .  A
C444        C445   1.409       .  A
C444        H449   1.083       .  S
C445        C446   1.403       .  A
C446        C447   1.398       .  A
C446        H450   1.082       .  S
C447        C448   1.395       .  A
C447        C761   1.500       .  S
C448        H451   1.083       .  S
C452        C453   1.411       .  A
C452        C457   1.422       .  A
C453        C454   1.395       .  A
C453        H458   1.084       .  S
C454        C455   1.387       .  A
C454        C824   1.482       .  S
C455        C456   1.399       .  A
C455        H459   1.085       .  S
C456        C457   1.424       .  A
C457        H460   1.083       .  S
C461        C462   1.415       .  A
C461        C466   1.412       .  A
C462        C463   1.394       .  A
C462        H467   1.082       .  S
C463        C464   1.397       .  A
C463        C752   1.501       .  S
C464        C465   1.404       .  A
C464        H468   1.081       .  S
C465        C466   1.414       .  A
C466        H469   1.083       .  S
C470        C471   1.415       .  A
C470        C475   1.425   1_455  A
C471        C472   1.402   1_455  A
C471        H476   1.085       .  S
C472        C473   1.382       .  A
C472        C740   1.482       .  S
C473        C474   1.393       .  A
C473        H477   1.086       .  S
C474        C475   1.426       .  A
C475        H478   1.082       .  S
C479        C480   1.402       .  A
C479        C484   1.428       .  A
C480        C481   1.381       .  A
C480        H485   1.087       .  S
C481        C482   1.396   1_556  A
C481        C656   1.476       .  S
C482        C483   1.414       .  A
C482        H486   1.081       .  S
C483        C484   1.431   1_554  A
C484        H487   1.083       .  S
C488        C489   1.429       .  A
C488        C493   1.415       .  A
C489        C490   1.433       .  A
C489        H494   1.082       .  S
C490        C491   1.401       .  A
C491        C492   1.393       .  A
C491        H495   1.081       .  S
C492        C493   1.405       .  A
C492        C872   1.515       .  S
C493        H496   1.085       .  S
C497        C498   1.409       .  A
C497        C502   1.427       .  A
C498        C499   1.396       .  A
C498        H503   1.083       .  S
C499        C500   1.399       .  A
C499        C797   1.501       .  S
C500        C501   1.400       .  A
C500        H504   1.080       .  S
C501        C502   1.427       .  A
C502        H505   1.083       .  S
C506        C507   1.399       .  A
C506        C511   1.428   1_556  A
C507        C508   1.410   1_556  A
C507        H512   1.082       .  S
C508        C509   1.397       .  A
C508        C677   1.505       .  S
C509        C510   1.401       .  A
C509        H513   1.077       .  S
C510        C511   1.427       .  A
C511        H514   1.082       .  S
C515        C516   1.417       .  A
C515        C520   1.420       .  A
C516        C517   1.405       .  A
C516        H521   1.075       .  S
C517        C518   1.394       .  A
C517        C812   1.514       .  S
C518        C519   1.404       .  A
C518        H522   1.084       .  S
C519        C520   1.422       .  A
C520        H523   1.079       .  S
C524        C525   1.414   1_455  A
C524        C529   1.420       .  A
C525        C526   1.413       .  A
C525        H530   1.083       .  S
C526        C527   1.397       .  A
C527        C528   1.397       .  A
C527        H531   1.079       .  S
C528        C529   1.402   1_655  A
C528        C701   1.512       .  S
C529        H532   1.078       .  S
C533        C534   1.413       .  A
C533        C538   1.417   1_545  A
C534        C535   1.405   1_545  A
C534        H539   1.082       .  S
C535        C536   1.388       .  A
C535        C644   1.515       .  S
C536        C537   1.402       .  A
C536        H540   1.085       .  S
C537        C538   1.421       .  A
C538        H541   1.083       .  S
C542        C543   1.416       .  A
C542        C547   1.419       .  A
C543        C544   1.396       .  A
C543        H548   1.081       .  S
C544        C545   1.394       .  A
C544        C845   1.496       .  S
C545        C546   1.404       .  A
C545        H549   1.085       .  S
C546        C547   1.420       .  A
C547        H550   1.083       .  S
C551        C552   1.410       .  A
C551        C556   1.423       .  A
C552        C553   1.398       .  A
C552        H557   1.084       .  S
C553        C554   1.397       .  A
C553        C776   1.492       .  S
C554        C555   1.397       .  A
C554        H558   1.081       .  S
C555        C556   1.420       .  A
C556        H559   1.083       .  S
C560        C561   1.406       .  A
C560        C565   1.422       .  A
C561        C562   1.394       .  A
C561        H566   1.085       .  S
C562        C563   1.393   1_545  A
C562        C632   1.497       .  S
C563        C564   1.413       .  A
C563        H567   1.080       .  S
C564        C565   1.423   1_565  A
C565        H568   1.083       .  S
C569        C570   1.400       .  A
C569        C574   1.415   1_455  A
C570        C571   1.393       .  A
C570        H575   1.085       .  S
C571        C572   1.401   1_455  A
C571        C728   1.494       .  S
C572        C573   1.413       .  A
C572        H576   1.081       .  S
C573        C574   1.416       .  A
C574        H577   1.083       .  S
C578        C579   1.419       .  A
C578        C583   1.402       .  A
C579        C580   1.418       .  A
C579        H584   1.083       .  S
C580        C581   1.409       .  A
C581        C582   1.405       .  A
C581        H585   1.083       .  S
C582        C583   1.400       .  A
C582        C884   1.504       .  S
C583        H586   1.081       .  S
C587        C588   1.409       .  A
C587        C592   1.415       .  A
C588        C589   1.389       .  A
C588        H593   1.073       .  S
C589        C590   1.407       .  A
C589        C788   1.512       .  S
C590        C591   1.412       .  A
C590        H594   1.081       .  S
C591        C592   1.419       .  A
C592        H595   1.083       .  S
C596        C597   1.418       .  A
C596        C601   1.397       .  A
C597        C598   1.422       .  A
C597        H602   1.083       .  S
C598        C599   1.406       .  A
C599        C600   1.401       .  A
C599        H603   1.084       .  S
C600        C601   1.387       .  A
C600        C833   1.485       .  S
C601        H604   1.082       .  S
C605        C606   1.403       .  A
C605        C610   1.414   1_545  A
C606        C607   1.396       .  A
C606        H615   1.083       .  S
C607        C608   1.414       .  A
C607        S611   1.801       .  S
C608        C609   1.409   1_545  A
C609        C610   1.397       .  A
C609        H616   1.083       .  S
C610        S612   1.807       .  S
S611        H614   1.407       .  S
S612        H613   1.407   1_655  S
C617        C618   1.398       .  A
C617        C622   1.419       .  A
C618        C619   1.393       .  A
C618        H627   1.084       .  S
C619        C620   1.419       .  A
C619        S623   1.786       .  S
C620        C621   1.407   1_545  A
C621        C622   1.402   1_565  A
C621        H628   1.082       .  S
C622        S624   1.808   1_545  S
S623        H626   1.402       .  S
S624        H625   1.407       .  S
C629        C630   1.403   1_545  A
C629        C634   1.413       .  A
C630        C631   1.403       .  A
C630        H639   1.083   1_655  S
C631        C632   1.421   1_565  A
C631        S635   1.805       .  S
C632        C633   1.408       .  A
C633        C634   1.392       .  A
C633        H640   1.082       .  S
C634        S636   1.809       .  S
S635        H638   1.407       .  S
S636        H637   1.405   1_655  S
C641        C642   1.412   1_545  A
C641        C646   1.433       .  A
C642        C643   1.403       .  A
C642        H651   1.083       .  S
C643        C644   1.410       .  A
C643        S647   1.798       .  S
C644        C645   1.402   1_565  A
C645        C646   1.413       .  A
C645        H652   1.082       .  S
C646        S648   1.799       .  S
S647        H650   1.408       .  S
S648        H649   1.407       .  S
C653        C654   1.401       .  A
C653        C658   1.414       .  A
C654        C655   1.395       .  A
C654        H663   1.085       .  S
C655        C656   1.420       .  A
C655        S659   1.801       .  S
C656        C657   1.399       .  A
C657        C658   1.403       .  A
C657        H664   1.084   1_556  S
C658        S660   1.792   1_556  S
S659        H662   1.404       .  S
S660        H661   1.402   1_554  S
C665        C666   1.401   1_554  A
C665        C670   1.401       .  A
C666        C667   1.400       .  A
C666        H675   1.084   1_545  S
C667        C668   1.417   1_556  A
C667        S671   1.802       .  S
C668        C669   1.414       .  A
C669        C670   1.394       .  A
C669        H676   1.079       .  S
C670        S672   1.809       .  S
S671        H674   1.407       .  S
S672        H673   1.400       .  S
C677        C678   1.409       .  A
C677        C682   1.414       .  A
C678        C679   1.404   1_554  A
C678        H687   1.083   1_554  S
C679        C680   1.410   1_556  A
C679        S683   1.797   1_565  S
C680        C681   1.400       .  A
C681        C682   1.391       .  A
C681        H688   1.084       .  S
C682        S684   1.796       .  S
S683        H686   1.406       .  S
S684        H685   1.408       .  S
C689        C690   1.400   1_556  A
C689        C694   1.404       .  A
C690        C691   1.402       .  A
C690        H699   1.077       .  S
C691        C692   1.402   1_554  A
C691        S695   1.786       .  S
C692        C693   1.416       .  A
C693        C694   1.391       .  A
C693        H700   1.079       .  S
C694        S696   1.803       .  S
S695        H698   1.401       .  S
S696        H697   1.407       .  S
C701        C702   1.411   1_655  A
C701        C706   1.416       .  A
C702        C703   1.400       .  A
C702        H711   1.079       .  S
C703        C704   1.408   1_455  A
C703        S707   1.807       .  S
C704        C705   1.400       .  A
C705        C706   1.400       .  A
C705        H712   1.081       .  S
C706        S708   1.803       .  S
S707        H710   1.407       .  S
S708        H709   1.409       .  S
C713        C714   1.404   1_655  A
C713        C718   1.409       .  A
C714        C715   1.401       .  A
C714        H723   1.083       .  S
C715        C716   1.412   1_455  A
C715        S719   1.799       .  S
C716        C717   1.412       .  A
C717        C718   1.398       .  A
C717        H724   1.080       .  S
C718        S720   1.800       .  S
S719        H722   1.408       .  S
S720        H721   1.404   1_554  S
C725        C726   1.403   1_455  A
C725        C730   1.407   1_554  A
C726        C727   1.405   1_554  A
C726        H735   1.083       .  S
C727        C728   1.415   1_655  A
C727        S731   1.806       .  S
C728        C729   1.409       .  A
C729        C730   1.395       .  A
C729        H736   1.081       .  S
C730        S732   1.808       .  S
S731        H734   1.407   1_556  S
S732        H733   1.407       .  S
C737        C738   1.397       .  A
C737        C742   1.402   1_655  A
C738        C739   1.395       .  A
C738        H747   1.084       .  S
C739        C740   1.423       .  A
C739        S743   1.809       .  S
C740        C741   1.404   1_655  A
C741        C742   1.403       .  A
C741        H748   1.083       .  S
C742        S744   1.793       .  S
S743        H746   1.408       .  S
S744        H745   1.407       .  S
C749        C750   1.403       .  A
C749        C754   1.410       .  A
C750        C751   1.405       .  A
C750        H759   1.083   1_554  S
C751        C752   1.414       .  A
C751        S755   1.805       .  S
C752        C753   1.410       .  A
C753        C754   1.393       .  A
C753        H760   1.081       .  S
C754        S756   1.804       .  S
S755        H758   1.407   1_554  S
S756        H757   1.406   1_554  S
C761        C762   1.410       .  A
C761        C766   1.417       .  A
C762        C763   1.393       .  A
C762        H771   1.081       .  S
C763        C764   1.405       .  A
C763        S767   1.797       .  S
C764        C765   1.398       .  A
C765        C766   1.400       .  A
C765        H772   1.079       .  S
C766        S768   1.802       .  S
S767        H770   1.405       .  S
S768        H769   1.407       .  S
C773        C774   1.403       .  A
C773        C778   1.409       .  A
C774        C775   1.405       .  A
C774        H783   1.083       .  S
C775        C776   1.416       .  A
C775        S779   1.807       .  S
C776        C777   1.407       .  A
C777        C778   1.396       .  A
C777        H784   1.081       .  S
C778        S780   1.809       .  S
S779        H782   1.407       .  S
S780        H781   1.407       .  S
C785        C786   1.401       .  A
C785        C790   1.410       .  A
C786        C787   1.397       .  A
C786        H795   1.083       .  S
C787        C788   1.419   1_554  A
C787        S791   1.800       .  S
C788        C789   1.404   1_556  A
C789        C790   1.405       .  A
C789        H796   1.083       .  S
C790        S792   1.788       .  S
S791        H794   1.408   1_554  S
S792        H793   1.405       .  S
C797        C798   1.409       .  A
C797        C802   1.415       .  A
C798        C799   1.394       .  A
C798        H807   1.081       .  S
C799        C800   1.410   1_455  A
C799        S803   1.802   1_455  S
C800        C801   1.401       .  A
C801        C802   1.401   1_655  A
C801        H808   1.083       .  S
C802        S804   1.803       .  S
S803        H806   1.406       .  S
S804        H805   1.409       .  S
C809        C810   1.404       .  A
C809        C814   1.410       .  A
C810        C811   1.402       .  A
C810        H819   1.083       .  S
C811        C812   1.413       .  A
C811        S815   1.801       .  S
C812        C813   1.413       .  A
C813        C814   1.401       .  A
C813        H820   1.082       .  S
C814        S816   1.801       .  S
S815        H818   1.409       .  S
S816        H817   1.406       .  S
C821        C822   1.401   1_455  A
C821        C826   1.417   1_455  A
C822        C823   1.403       .  A
C822        H831   1.083   1_655  S
C823        C824   1.415       .  A
C823        S827   1.806       .  S
C824        C825   1.401       .  A
C825        C826   1.391       .  A
C825        H832   1.084       .  S
C826        S828   1.802   1_655  S
S827        H830   1.408       .  S
S828        H829   1.404       .  S
C833        C834   1.408       .  A
C833        C838   1.424       .  A
C834        C835   1.401       .  A
C834        H843   1.083       .  S
C835        C836   1.406       .  A
C835        S839   1.801       .  S
C836        C837   1.396       .  A
C837        C838   1.394       .  A
C837        H844   1.084       .  S
C838        S840   1.812       .  S
S839        H842   1.408       .  S
S840        H841   1.408       .  S
C845        C846   1.407       .  A
C845        C850   1.420       .  A
C846        C847   1.401       .  A
C846        H855   1.082       .  S
C847        C848   1.410       .  A
C847        S851   1.808       .  S
C848        C849   1.402       .  A
C849        C850   1.402       .  A
C849        H856   1.084       .  S
C850        S852   1.804       .  S
S851        H854   1.406       .  S
S852        H853   1.407       .  S
C857        C858   1.404       .  A
C857        C862   1.415       .  A
C858        C859   1.398       .  A
C858        H867   1.083       .  S
C859        C860   1.408       .  A
C859        S863   1.798       .  S
C860        C861   1.406       .  A
C861        C862   1.398       .  A
C861        H868   1.075       .  S
C862        S864   1.801       .  S
S863        H866   1.402       .  S
S864        H865   1.402       .  S
C869        C870   1.394       .  A
C869        C874   1.402       .  A
C870        C871   1.398       .  A
C870        H879   1.084       .  S
C871        C872   1.420       .  A
C871        S875   1.790       .  S
C872        C873   1.409       .  A
C873        C874   1.395       .  A
C873        H880   1.080       .  S
C874        S876   1.789       .  S
S875        H878   1.408       .  S
S876        H877   1.406       .  S
C881        C882   1.406       .  A
C881        C886   1.411       .  A
C882        C883   1.399       .  A
C882        H891   1.084       .  S
C883        C884   1.419       .  A
C883        S887   1.804       .  S
C884        C885   1.414       .  A
C885        C886   1.407       .  A
C885        H892   1.082       .  S
C886        S888   1.808       .  S
S887        H890   1.407       .  S
S888        H889   1.407       .  S
