geometry optimzed in LAMMPS
_audit_creation_date              2020-11-30 
_audit_creation_method            'lammps2cif' 
_symmetry_space_group_name_H-M    'P1' 
_symmetry_Int_Tables_number       1 
_symmetry_cell_setting            triclinic 
loop_ 
_symmetry_equiv_pos_as_xyz 
  x,y,z 
_cell_length_a                    46.22845411 
_cell_length_b                    46.183703252780425 
_cell_length_c                    33.185343134588145 
_cell_angle_alpha                 90.05646165347108 
_cell_angle_beta                  89.92353805237668 
_cell_angle_gamma                 90.19602827650118 
loop_ 
_atom_site_label 
_atom_site_type_symbol 
_atom_site_fract_x 
_atom_site_fract_y 
_atom_site_fract_z 
_atom_site_charge 
N1          N  0.37623062  0.41892260  0.75205979    -0.35900
N2          N  0.39213817  0.37654429  0.68984094    -0.56500
N3          N  0.37286106  0.33089826  0.74689083    -0.35900
N4          N  0.35809210  0.37302654  0.80917678    -0.56500
C5          C  0.38593100  0.43699883  0.72254618     0.27700
C6          C  0.36834130  0.43539177  0.78421955     0.27700
C7          C  0.38486291  0.31521024  0.71645760     0.27600
C8          C  0.36836990  0.31263408  0.77857922     0.27600
C9          C  0.39389211  0.40075126  0.66698402     0.36300
C10         C  0.39160675  0.35378465  0.66414924     0.36300
C11         C  0.35539006  0.39606588  0.83418785     0.36300
C12         C  0.35470405  0.34891560  0.83197825     0.36300
C13         C  0.38492519  0.46519470  0.73693635    -0.21200
C14         C  0.37251238  0.46431365  0.77423089    -0.21200
C15         C  0.38822948  0.28691329  0.72919284    -0.21200
C16         C  0.37631725  0.28494845  0.76660948    -0.21200
C17         C  0.39480612  0.39324352  0.62652673    -0.22300
C18         C  0.39322988  0.36355705  0.62473650    -0.22300
C19         C  0.35040584  0.38647211  0.87315326    -0.22300
C20         C  0.35003938  0.35682180  0.87179433    -0.22300
C21         C  0.39348582  0.42956889  0.68185474    -0.17600
C22         C  0.35893277  0.42561429  0.82322895    -0.17600
C23         C  0.35814335  0.31990458  0.81832536    -0.17600
C24         C  0.39003796  0.32434522  0.67590725    -0.17600
H25         H  0.39176149  0.48488305  0.72208663     0.15300
H26         H  0.36731281  0.48333419  0.79171623     0.15300
H27         H  0.39731895  0.26888901  0.71270121     0.15300
H28         H  0.37360624  0.26473024  0.78216657     0.15300
H29         H  0.39552834  0.40761275  0.60081121     0.13600
H30         H  0.39272643  0.35077554  0.59741160     0.13600
H31         H  0.34848326  0.39931935  0.90028296     0.13600
H32         H  0.34802823  0.34287694  0.89780182     0.13600
H33         H  0.37489708  0.39672826  0.75035869     0.26800
H34         H  0.36515694  0.35179401  0.74427280     0.26800
N35         N  0.12621267  0.41908825  0.74887532    -0.35900
N36         N  0.10921456  0.37492233  0.68913313    -0.56500
N37         N  0.12396869  0.33124617  0.74995044    -0.35900
N38         N  0.14129815  0.37549559  0.80947907    -0.56500
C39         C  0.11593523  0.43606979  0.71863901     0.27700
C40         C  0.13297009  0.43662243  0.78053825     0.27700
C41         C  0.11846312  0.31370737  0.71785672     0.27600
C42         C  0.13386985  0.31436428  0.78050187     0.27600
C43         C  0.10784257  0.39842435  0.66492118     0.36300
C44         C  0.10793530  0.35137582  0.66493670     0.36300
C45         C  0.14290992  0.39905093  0.83359375     0.36300
C46         C  0.14166663  0.35211990  0.83396022     0.36300
C47         C  0.11595835  0.46457611  0.73172864    -0.21200
C48         C  0.12851542  0.46504593  0.76888370    -0.21200
C49         C  0.12356898  0.28528610  0.72943888    -0.21200
C50         C  0.13468647  0.28588621  0.76743490    -0.21200
C51         C  0.10568360  0.38975761  0.62503736    -0.22300
C52         C  0.10572019  0.36004432  0.62503840    -0.22300
C53         C  0.14439290  0.39049148  0.87360304    -0.22300
C54         C  0.14356475  0.36085483  0.87381566    -0.22300
C55         C  0.10920608  0.42757938  0.67812310    -0.17600
C56         C  0.14131933  0.42819782  0.82054012    -0.17600
C57         C  0.13996419  0.32298654  0.82104519    -0.17600
C58         C  0.11018377  0.32218280  0.67786229    -0.17600
H59         H  0.10865796  0.48356684  0.71574931     0.15300
H60         H  0.13412064  0.48453065  0.78496949     0.15300
H61         H  0.11955222  0.26558308  0.71292395     0.15300
H62         H  0.14181384  0.26698281  0.78379525     0.15300
H63         H  0.10501221  0.40330454  0.59848402     0.13600
H64         H  0.10523318  0.34648582  0.59844033     0.13600
H65         H  0.14478158  0.40406108  0.90018134     0.13600
H66         H  0.14347617  0.34741761  0.90049513     0.13600
H67         H  0.13057673  0.39729099  0.74679476     0.26800
H68         H  0.11886725  0.35289134  0.75216165     0.26800
N69         N  0.04447671  0.24966541  0.50000268    -0.35900
N70         N  0.49815438  0.26867939  0.55556608    -0.56500
N71         N  0.45429405  0.25376571  0.49430929    -0.35900
N72         N  0.49839575  0.23314885  0.43680387    -0.56500
C73         C  0.06117262  0.26011550  0.53050074     0.27700
C74         C  0.06245317  0.24267240  0.46895181     0.27700
C75         C  0.43679805  0.26017695  0.52610513     0.27600
C76         C  0.43737531  0.24241558  0.46463611     0.27600
C77         C  0.02297070  0.27057565  0.58250060     0.36300
C78         C  0.47435992  0.27223776  0.57882686     0.36300
C79         C  0.02575822  0.23257187  0.41475012     0.36300
C80         C  0.47513608  0.23208278  0.41208412     0.36300
C81         C  0.08982416  0.26002434  0.51818102    -0.21200
C82         C  0.09073045  0.24718883  0.48132689    -0.21200
C83         C  0.40838238  0.25428560  0.51512320    -0.21200
C84         C  0.40892509  0.24184726  0.47788585    -0.21200
C85         C  0.01364922  0.27462858  0.62178689    -0.22300
C86         C  0.48258014  0.27578669  0.61874093    -0.22300
C87         C  0.01792914  0.22969649  0.37461820    -0.22300
C88         C  0.48417259  0.22881922  0.37252286    -0.22300
C89         C  0.05229151  0.26729419  0.57059669    -0.17600
C90         C  0.05469172  0.23397272  0.42885679    -0.17600
C91         C  0.44590716  0.23460220  0.42460033    -0.17600
C92         C  0.44523939  0.26962490  0.56565510    -0.17600
H93         H  0.10865839  0.26756958  0.53440642     0.15300
H94         H  0.11045908  0.24160812  0.46592064     0.15300
H95         H  0.38877464  0.25830380  0.53187392     0.15300
H96         H  0.39002298  0.23387106  0.46217177     0.15300
H97         H  0.02666791  0.27558981  0.64881444     0.13600
H98         H  0.46879128  0.27787788  0.64492477     0.13600
H99         H  0.03202549  0.22762407  0.34873852     0.13600
H100        H  0.47086951  0.22793291  0.34574859     0.13600
H101        H  0.02258937  0.24528980  0.50166368     0.26800
H102        H  0.47593906  0.25907948  0.49171285     0.26800
C103        C  0.37773860  0.25214615  0.62551450     0.03800
C104        C  0.37198707  0.27861713  0.64422773    -0.12300
C105        C  0.39287623  0.30083121  0.64470475     0.01300
C106        C  0.41719420  0.29833203  0.61899411    -0.10900
C107        C  0.42175088  0.27255884  0.59678013     0.03800
C108        C  0.40340982  0.24881748  0.60383703    -0.10300
H109        H  0.35211141  0.28119934  0.66121423     0.09400
H110        H  0.43273466  0.31586675  0.61697205     0.06900
H111        H  0.40802709  0.22818144  0.58964320     0.06800
C112        C  0.12338157  0.25215042  0.62197016     0.03800
C113        C  0.09640549  0.24731207  0.60417768    -0.12300
C114        C  0.07597065  0.26977189  0.60158612     0.01300
C115        C  0.08045986  0.29502036  0.62493952    -0.10900
C116        C  0.10642287  0.29863956  0.64694957     0.03800
C117        C  0.12877913  0.27857236  0.64112617    -0.10300
H118        H  0.09225556  0.22689138  0.58907593     0.09400
H119        H  0.06411630  0.31174830  0.62574446     0.06900
H120        H  0.14970640  0.28237697  0.65491490     0.06800
N121        N  0.45831760  0.50360598  0.50379265    -0.35900
N122        N  0.99807230  0.01592584  0.44156087    -0.56500
N123        N  0.04448490  0.50006000  0.49831334    -0.35900
N124        N  0.00182448  0.48537271  0.56007158    -0.56500
C125        C  0.43728786  0.00712878  0.47004140     0.27700
C126        C  0.44158110  0.49420638  0.53497309     0.27700
C127        C  0.05929778  0.00762292  0.47031645     0.27600
C128        C  0.06254972  0.49411532  0.52964759     0.27600
C129        C  0.47441818  0.01661674  0.41644954     0.36300
C130        C  0.02152084  0.01678649  0.41715978     0.36300
C131        C  0.48001475  0.48403672  0.58651929     0.36300
C132        C  0.02567916  0.48341011  0.58349933     0.36300
C133        C  0.40896487  0.00675031  0.48378876    -0.21200
C134        C  0.41290327  0.49460328  0.52297631    -0.21200
C135        C  0.08785453  0.00473282  0.48237701    -0.21200
C136        C  0.09075439  0.49963162  0.51729555    -0.21200
C137        C  0.48300289  0.01837010  0.37651454    -0.22300
C138        C  0.01273740  0.01894185  0.37731189    -0.22300
C139        C  0.48947237  0.48035671  0.62576626    -0.22300
C140        C  0.01757981  0.48145673  0.62367002    -0.22300
C141        C  0.44536136  0.01465983  0.42969591    -0.17600
C142        C  0.45066034  0.48676227  0.57491012    -0.17600
C143        C  0.05470663  0.48525234  0.56972657    -0.17600
C144        C  0.05071391  0.01465864  0.43000508    -0.17600
H145        H  0.38972398  0.01432440  0.46877819     0.15300
H146        H  0.39411280  0.48747874  0.53966611     0.15300
H147        H  0.10727122  0.01009419  0.46595119     0.15300
H148        H  0.11070437  0.49570084  0.53311877     0.15300
H149        H  0.46945899  0.01809944  0.34995762     0.13600
H150        H  0.02618185  0.01928269  0.35061075     0.13600
H151        H  0.47653368  0.47960483  0.65293480     0.13600
H152        H  0.03148681  0.48071296  0.64983551     0.13600
H153        H  0.48036057  0.50715705  0.50471049     0.26800
H154        H  0.02275441  0.49499423  0.49657032     0.26800
C155        C  0.12145188  0.99834266  0.62612121     0.03800
C156        C  0.12899219  0.47181391  0.64522776    -0.12300
C157        C  0.10652019  0.45142453  0.64752045     0.01300
C158        C  0.08173021  0.45545847  0.62306452    -0.10900
C159        C  0.07859668  0.48118629  0.60013592     0.03800
C160        C  0.09488816  0.00351722  0.60746742    -0.10300
H161        H  0.14909130  0.46795258  0.66113621     0.09400
H162        H  0.06502388  0.43898033  0.62216532     0.06900
H163        H  0.09126924  0.02412462  0.59270666     0.06800
C164        C  0.37712249  0.99851428  0.62717893     0.03800
C165        C  0.37588603  0.47508641  0.64970407    -0.12300
C166        C  0.39770053  0.45414671  0.65256065     0.01300
C167        C  0.42307886  0.45777688  0.62899369    -0.10900
C168        C  0.42733482  0.48350486  0.60637360     0.03800
C169        C  0.40365381  0.00310614  0.60800903    -0.10300
H170        H  0.35535009  0.47150802  0.66476371     0.09400
H171        H  0.43912922  0.44077127  0.62804122     0.06900
H172        H  0.40796327  0.02372622  0.59357196     0.06800
N173        N  0.29220271  0.24585035  0.99671928    -0.35900
N174        N  0.24869230  0.22963700  0.05764926    -0.56500
N175        N  0.20425237  0.24990155  0.00052534    -0.35900
N176        N  0.24791230  0.26622929  0.93964577    -0.56500
C177        C  0.30981111  0.23881331  0.02803882     0.27700
C178        C  0.30914902  0.25631125  0.96644576     0.27700
C179        C  0.18736711  0.23912482  0.03065795     0.27600
C180        C  0.18661492  0.25737970  0.96943796     0.27600
C181        C  0.27242979  0.22725839  0.08120105     0.36300
C182        C  0.22547819  0.22805063  0.08243098     0.36300
C183        C  0.27110688  0.26752935  0.91468500     0.36300
C184        C  0.22408057  0.26917675  0.91634045     0.36300
C185        C  0.33827761  0.24344705  0.01620479    -0.21200
C186        C  0.33773765  0.25589790  0.97904106    -0.21200
C187        C  0.15873535  0.23983170  0.01829499    -0.21200
C188        C  0.15815843  0.25273063  0.98137610    -0.21200
C189        C  0.26413874  0.22388826  0.12112740    -0.22300
C190        C  0.23453161  0.22441892  0.12189571    -0.22300
C191        C  0.26193935  0.27158528  0.87538732    -0.22300
C192        C  0.23232919  0.27268233  0.87641524    -0.22300
C193        C  0.30149599  0.23002497  0.06791898    -0.17600
C194        C  0.30039518  0.26419826  0.92650627    -0.17600
C195        C  0.19494207  0.26665787  0.92970388    -0.17600
C196        C  0.19624419  0.23073922  0.07033190    -0.17600
H197        H  0.35793160  0.23863486  0.03235035     0.15300
H198        H  0.35674927  0.26329442  0.96303555     0.15300
H199        H  0.13973528  0.23246769  0.03437316     0.15300
H200        H  0.13849456  0.25797908  0.96554557     0.15300
H201        H  0.27785332  0.22251070  0.14742657     0.13600
H202        H  0.22137559  0.22341878  0.14883594     0.13600
H203        H  0.27499669  0.27250666  0.84835926     0.13600
H204        H  0.21856568  0.27442994  0.85021517     0.13600
H205        H  0.27030253  0.24179541  0.99495054     0.26800
H206        H  0.22617255  0.25384260  0.00224598     0.26800
C207        C  0.37102808  0.24930976  0.87398739     0.03800
C208        C  0.34437125  0.24453343  0.89243109    -0.12300
C209        C  0.32399480  0.26692401  0.89525096     0.01300
C210        C  0.32809971  0.29191189  0.87101848    -0.10900
C211        C  0.35400983  0.29562659  0.84849408     0.03800
C212        C  0.37642439  0.27558729  0.85458115    -0.10300
H213        H  0.34064000  0.22427714  0.90814488     0.09400
H214        H  0.31159910  0.30847465  0.87022078     0.06900
H215        H  0.39759494  0.27942896  0.84150635     0.06800
C216        C  0.12519609  0.25228075  0.87355306     0.03800
C217        C  0.12052840  0.27867963  0.85429175    -0.12300
C218        C  0.14273585  0.29935183  0.85177802     0.01300
C219        C  0.16755249  0.29588521  0.87623337    -0.10900
C220        C  0.17122997  0.27025706  0.89900497     0.03800
C221        C  0.15137313  0.24756268  0.89343044    -0.10300
H222        H  0.10030593  0.28240247  0.83865432     0.09400
H223        H  0.18390097  0.31271781  0.87717838     0.06900
H224        H  0.15522467  0.22681393  0.90767465     0.06800
N225        N  0.37666500  0.07927364  0.24827639    -0.35900
N226        N  0.35774009  0.12239560  0.18840428    -0.56500
N227        N  0.37074304  0.16691242  0.24915073    -0.35900
N228        N  0.38967751  0.12401796  0.30882646    -0.56500
C229        C  0.36534962  0.06198512  0.21891769     0.27700
C230        C  0.38194959  0.06231275  0.28099843     0.27700
C231        C  0.36354399  0.18392483  0.21724029     0.27600
C232        C  0.37968881  0.18466303  0.27949386     0.27600
C233        C  0.35764216  0.09871571  0.16438931     0.36300
C234        C  0.35645952  0.14573480  0.16388244     0.36300
C235        C  0.39311648  0.10069814  0.33296255     0.36300
C236        C  0.39102593  0.14774077  0.33278627     0.36300
C237        C  0.36354588  0.03391919  0.23341643    -0.21200
C238        C  0.37561479  0.03383116  0.27079768    -0.21200
C239        C  0.36602754  0.21261920  0.22894358    -0.21200
C240        C  0.37816199  0.21302513  0.26622484    -0.21200
C241        C  0.35623855  0.10702606  0.12433453    -0.22300
C242        C  0.35549800  0.13675014  0.12400108    -0.22300
C243        C  0.39669968  0.10974573  0.37254046    -0.22300
C244        C  0.39531816  0.13940765  0.37241763    -0.22300
C245        C  0.35878956  0.06973702  0.17815481    -0.17600
C246        C  0.39071793  0.07134239  0.32065080    -0.17600
C247        C  0.38784027  0.17678915  0.31965971    -0.17600
C248        C  0.35728757  0.17504279  0.17671531    -0.17600
H249        H  0.35502810  0.01491551  0.21848570     0.15300
H250        H  0.37919995  0.01444978  0.28807191     0.15300
H251        H  0.36014572  0.23176395  0.21239680     0.15300
H252        H  0.38511615  0.23244833  0.28150106     0.15300
H253        H  0.35647643  0.09323350  0.09796623     0.13600
H254        H  0.35517558  0.15013074  0.09726821     0.13600
H255        H  0.39887049  0.09646631  0.39918406     0.13600
H256        H  0.39642606  0.15309695  0.39883899     0.13600
H257        H  0.38283237  0.10067017  0.24489361     0.26800
H258        H  0.36854748  0.14473153  0.25068597     0.26800
N259        N  0.20618287  0.49292619  0.00525857    -0.35900
N260        N  0.24819691  0.01246631  0.06071294    -0.56500
N261        N  0.29413029  0.49827370  0.00307141    -0.35900
N262        N  0.25001863  0.47986285  0.94371915    -0.56500
C263        C  0.18689367  0.00252607  0.03325329     0.27700
C264        C  0.18872489  0.48666581  0.97334764     0.27700
C265        C  0.30907033  0.00448140  0.03131632     0.27600
C266        C  0.31097060  0.48734192  0.97301061     0.27600
C267        C  0.22490601  0.01392820  0.08532913     0.36300
C268        C  0.27184383  0.01602400  0.08421916     0.36300
C269        C  0.22647387  0.47873306  0.91954201     0.36300
C270        C  0.27349939  0.47944208  0.91931255     0.36300
C271        C  0.15826952  0.00172561  0.02082490    -0.21200
C272        C  0.16016510  0.48971570  0.98554230    -0.21200
C273        C  0.33728533  0.99818656  0.02003148    -0.21200
C274        C  0.33927018  0.48594055  0.98651946    -0.21200
C275        C  0.23383686  0.01835187  0.12471938    -0.22300
C276        C  0.26344806  0.01977104  0.12401031    -0.22300
C277        C  0.23517888  0.47737885  0.87955447    -0.22300
C278        C  0.26484929  0.47777910  0.87943592    -0.22300
C279        C  0.19570431  0.01094007  0.07305097    -0.17600
C280        C  0.19724928  0.48044342  0.93261445    -0.17600
C281        C  0.30263036  0.48099734  0.93237282    -0.17600
C282        C  0.30093296  0.01361894  0.07109548    -0.17600
H283        H  0.13928484  0.00907201  0.03680252     0.15300
H284        H  0.14063108  0.48532673  0.96877150     0.15300
H285        H  0.35699679  0.00164116  0.03667989     0.15300
H286        H  0.35809957  0.47798191  0.97070082     0.15300
H287        H  0.22058007  0.01957118  0.15154090     0.13600
H288        H  0.27713367  0.02208566  0.15023406     0.13600
H289        H  0.22170484  0.47722457  0.85294076     0.13600
H290        H  0.27838158  0.47782926  0.85281818     0.13600
H291        H  0.22831930  0.49050314  0.00631780     0.26800
H292        H  0.27267759  0.50415643  0.00034096     0.26800
C293        C  0.12412971  0.99391892  0.87656274     0.03800
C294        C  0.15055552  0.99807242  0.89619042    -0.12300
C295        C  0.17365285  0.47870328  0.90135130     0.01300
C296        C  0.16997619  0.45436915  0.87587319    -0.10900
C297        C  0.14485915  0.45163259  0.85177697     0.03800
C298        C  0.12252383  0.47172324  0.85721205    -0.10300
H299        H  0.15473079  0.01847546  0.91132972     0.09400
H300        H  0.18631381  0.43763030  0.87508259     0.06900
H301        H  0.10189512  0.46812123  0.84252134     0.06800
C302        C  0.37102637  0.99772519  0.87878379     0.03800
C303        C  0.37914619  0.46698982  0.86269459    -0.12300
C304        C  0.35574287  0.44828950  0.85554185     0.01300
C305        C  0.32974948  0.45275523  0.87729310    -0.10900
C306        C  0.32663753  0.47759177  0.90197559     0.03800
C307        C  0.34413815  0.00226716  0.89683730    -0.10300
H308        H  0.39993443  0.46223181  0.84911054     0.09400
H309        H  0.31234490  0.43708072  0.87522546     0.06900
H310        H  0.34021828  0.02229666  0.91298951     0.06800
N311        N  0.12126055  0.07845342  0.25002162    -0.35900
N312        N  0.14176885  0.12153329  0.19163635    -0.56500
N313        N  0.12854453  0.16630418  0.25285383    -0.35900
N314        N  0.10830787  0.12329194  0.31141666    -0.56500
C315        C  0.13102842  0.06082117  0.22006927     0.27700
C316        C  0.11375421  0.06144132  0.28177948     0.27700
C317        C  0.13549578  0.18331163  0.22081865     0.27600
C318        C  0.11960905  0.18394771  0.28330966     0.27600
C319        C  0.14277402  0.09798561  0.16731689     0.36300
C320        C  0.14413775  0.14505349  0.16757805     0.36300
C321        C  0.10530536  0.09968977  0.33515087     0.36300
C322        C  0.10818349  0.14667119  0.33608514     0.36300
C323        C  0.12950017  0.03239992  0.23324701    -0.21200
C324        C  0.11700812  0.03267251  0.27039644    -0.21200
C325        C  0.13276960  0.21203725  0.23244713    -0.21200
C326        C  0.12115380  0.21239876  0.27017043    -0.21200
C327        C  0.14612550  0.10658412  0.12762161    -0.22300
C328        C  0.14686312  0.13627017  0.12774297    -0.22300
C329        C  0.10306083  0.10822529  0.37515797    -0.22300
C330        C  0.10487967  0.13787562  0.37572297    -0.22300
C331        C  0.13958011  0.06887825  0.18010909    -0.17600
C332        C  0.10633516  0.07047054  0.32189135    -0.17600
C333        C  0.11171588  0.17579996  0.32352734    -0.17600
C334        C  0.14237316  0.17434589  0.18046420    -0.17600
H335        H  0.13643941  0.01301597  0.21783096     0.15300
H336        H  0.11156800  0.01334674  0.28706501     0.15300
H337        H  0.13845198  0.23125072  0.21570606     0.15300
H338        H  0.11495600  0.23189258  0.28594364     0.15300
H339        H  0.14678917  0.09304274  0.10102412     0.13600
H340        H  0.14815535  0.14970664  0.10113196     0.13600
H341        H  0.10140924  0.09457863  0.40153914     0.13600
H342        H  0.10477779  0.15124784  0.40250691     0.13600
H343        H  0.11820994  0.10049927  0.24816018     0.26800
H344        H  0.13141356  0.14423226  0.25455315     0.26800
C345        C  0.12598246  0.49911461  0.12796148     0.03800
C346        C  0.12047255  0.02450650  0.14590098    -0.12300
C347        C  0.14299079  0.04480576  0.14974921     0.01300
C348        C  0.16848216  0.04063391  0.12665816    -0.10900
C349        C  0.17216816  0.01486190  0.10393617     0.03800
C350        C  0.15305569  0.49257122  0.11149865    -0.10300
H351        H  0.09984142  0.02847390  0.16044447     0.09400
H352        H  0.18513401  0.05717042  0.12633675     0.06900
H353        H  0.15674361  0.47133787  0.09853959     0.06800
C354        C  0.37266955  0.49921467  0.13161636     0.03800
C355        C  0.34625022  0.49423676  0.11242783    -0.12300
C356        C  0.32453806  0.01661523  0.10209208     0.01300
C357        C  0.32962894  0.04257134  0.12387114    -0.10900
C358        C  0.35452759  0.04535239  0.14853065     0.03800
C359        C  0.37522653  0.02319851  0.14748089    -0.10300
H360        H  0.34204814  0.47321619  0.09902626     0.09400
H361        H  0.31429423  0.06018090  0.12193195     0.06900
H362        H  0.39558307  0.02592424  0.16327089     0.06800
C363        C  0.37085216  0.24614203  0.12351864     0.03800
C364        C  0.34456644  0.25030314  0.10387812    -0.12300
C365        C  0.32516803  0.22714911  0.09867108     0.01300
C366        C  0.32943085  0.20161508  0.12143697    -0.10900
C367        C  0.35444956  0.19855942  0.14553198     0.03800
C368        C  0.37634993  0.21967877  0.14235011    -0.10300
H369        H  0.34036104  0.27091123  0.08941955     0.09400
H370        H  0.31336789  0.18450014  0.12072400     0.06900
H371        H  0.39674879  0.21659794  0.15782997     0.06800
C372        C  0.12657860  0.24431265  0.12630339     0.03800
C373        C  0.15263269  0.24924340  0.10612887    -0.12300
C374        C  0.17289863  0.22700216  0.10147840     0.01300
C375        C  0.16965505  0.20165362  0.12498854    -0.10900
C376        C  0.14471801  0.19778344  0.14917410     0.03800
C377        C  0.12205346  0.21781461  0.14560746    -0.10300
H378        H  0.15623876  0.26980911  0.09117282     0.09400
H379        H  0.18631879  0.18523845  0.12460078     0.06900
H380        H  0.10173033  0.21378931  0.16098157     0.06800
C381        C  0.12162641  0.50290347  0.37269053     0.03800
C382        C  0.12608677  0.02728091  0.35730808    -0.12300
C383        C  0.10338517  0.04708105  0.35290182     0.01300
C384        C  0.07792170  0.04300136  0.37581329    -0.10900
C385        C  0.07432896  0.01762357  0.39910060     0.03800
C386        C  0.09524454  0.49802855  0.39220694    -0.10300
H387        H  0.14661702  0.03121729  0.34238466     0.09400
H388        H  0.06121972  0.05938591  0.37562367     0.06900
H389        H  0.09124374  0.47746097  0.40692936     0.06800
C390        C  0.37770296  0.50317615  0.37812573     0.03800
C391        C  0.36952358  0.02980097  0.35900061    -0.12300
C392        C  0.39319181  0.04829399  0.35248923     0.01300
C393        C  0.41879356  0.04358582  0.37495846    -0.10900
C394        C  0.42136385  0.01866227  0.39960920     0.03800
C395        C  0.40414233  0.49794129  0.39714957    -0.10300
H396        H  0.34896914  0.03426611  0.34460055     0.09400
H397        H  0.43633504  0.05913737  0.37338330     0.06900
H398        H  0.40808989  0.47716979  0.41122843     0.06800
C399        C  0.37527907  0.24872203  0.37140166     0.03800
C400        C  0.36974811  0.22199127  0.35318841    -0.12300
C401        C  0.39172948  0.20111092  0.34962353     0.01300
C402        C  0.41763199  0.20523658  0.37179438    -0.10900
C403        C  0.42204039  0.23102232  0.39414579     0.03800
C404        C  0.40174215  0.25342139  0.39050957    -0.10300
H405        H  0.34904990  0.21839398  0.33864937     0.09400
H406        H  0.43408395  0.18860878  0.37175780     0.06900
H407        H  0.40570622  0.27399874  0.40531564     0.06800
C408        C  0.12576631  0.24727203  0.37528500     0.03800
C409        C  0.13086914  0.22038964  0.35736037    -0.12300
C410        C  0.10855351  0.19978365  0.35406680     0.01300
C411        C  0.08299659  0.20397626  0.37697410    -0.10900
C412        C  0.07892253  0.22998244  0.39890067     0.03800
C413        C  0.09912213  0.25247741  0.39376430    -0.10300
H414        H  0.15141880  0.21652703  0.34253883     0.09400
H415        H  0.06636841  0.18741258  0.37739396     0.06900
H416        H  0.09502758  0.27349099  0.40717217     0.06800
O417        O  0.47124701  0.40284439  0.09487971    -0.71100
O418        O  0.03024079  0.34350783  0.09237225    -0.71300
O419        O  0.46924611  0.34507797  0.09183787    -0.71200
O420        O  0.02804158  0.40124381  0.09294229    -0.71200
O421        O  0.02898556  0.39974099  0.15833292    -0.71100
O422        O  0.46983973  0.34291504  0.15714914    -0.71200
O423        O  0.02838577  0.34173900  0.15768618    -0.71100
O424        O  0.47053027  0.40074579  0.16020566    -0.71300
V425        V  0.49921364  0.37308758  0.09452504     1.35200
V426        V  0.49917333  0.37166169  0.15736144     1.35200
C427        C  0.46103624  0.41168341  0.12799313     0.78100
C428        C  0.03928104  0.33286613  0.12502586     0.78200
C429        C  0.45931537  0.33436839  0.12403422     0.78100
C430        C  0.03817083  0.41058310  0.12577703     0.78000
O431        O  0.27928325  0.40620510  0.33710464    -0.71100
O432        O  0.22113514  0.34813131  0.33652876    -0.71300
O433        O  0.22132455  0.40631393  0.33618740    -0.71200
O434        O  0.27911020  0.34816062  0.33741006    -0.71200
O435        O  0.27920767  0.34916245  0.40278054    -0.71100
O436        O  0.22011371  0.40557238  0.40156569    -0.71200
O437        O  0.22148059  0.34782368  0.40193082    -0.71100
O438        O  0.27786183  0.40682257  0.40251656    -0.71300
V439        V  0.25018990  0.37721334  0.33800427     1.35200
V440        V  0.24965912  0.37736999  0.40087849     1.35200
C441        C  0.28848234  0.41633540  0.37008338     0.78100
C442        C  0.21161557  0.33786682  0.36927676     0.78200
C443        C  0.21073611  0.41574420  0.36877667     0.78100
C444        C  0.28912986  0.33882051  0.37036939     0.78000
O445        O  0.22142042  0.09582030  0.59208697    -0.71100
O446        O  0.27976956  0.15353452  0.59369791    -0.71300
O447        O  0.27937269  0.09576854  0.59422255    -0.71200
O448        O  0.22171021  0.15379672  0.59185509    -0.71200
O449        O  0.22103781  0.15425457  0.65723225    -0.71100
O450        O  0.27805757  0.09581115  0.65960220    -0.71200
O451        O  0.27908365  0.15373686  0.65906664    -0.71100
O452        O  0.22020440  0.09627391  0.65745599    -0.71300
V453        V  0.25055438  0.12475271  0.59422949     1.35200
V454        V  0.24957882  0.12503193  0.65707628     1.35200
C455        C  0.21080188  0.08617292  0.62450732     0.78100
C456        C  0.28968096  0.16326769  0.62650198     0.78200
C457        C  0.28858335  0.08591927  0.62732531     0.78100
C458        C  0.21147526  0.16391774  0.62426374     0.78000
O459        O  0.02852927  0.09429422  0.84534607    -0.71100
O460        O  0.47087875  0.15278768  0.84865834    -0.71300
O461        O  0.02860151  0.15240588  0.84425617    -0.71200
O462        O  0.47070428  0.09504740  0.84973933    -0.71200
O463        O  0.46977839  0.09556795  0.91509849    -0.71100
O464        O  0.02815604  0.15333245  0.90964947    -0.71200
O465        O  0.47026348  0.15362403  0.91403818    -0.71100
O466        O  0.02880011  0.09524597  0.91071443    -0.71300
V467        V  0.49974596  0.12382133  0.85104193     1.35200
V468        V  0.49912808  0.12450890  0.91388516     1.35200
C469        C  0.03838520  0.08466063  0.87821944     0.78100
C470        C  0.46051741  0.16296056  0.88095626     0.78200
C471        C  0.03808466  0.16296390  0.87679522     0.78100
C472        C  0.46017099  0.08550477  0.88222880     0.78000
C473        C  0.17739694  0.30659083  0.40705262    -0.20600
C474        C  0.18961995  0.31474695  0.37000799    -0.08700
C475        C  0.18090588  0.30032145  0.33465564     0.30200
C476        C  0.16034234  0.27814606  0.33667518    -0.20600
C477        C  0.14799513  0.27024248  0.37375166    -0.08700
C478        C  0.15678942  0.28463950  0.40899700     0.30200
F479        F  0.14604758  0.27716382  0.44553853    -0.19200
H480        H  0.18378849  0.31721121  0.43478283     0.18600
H481        H  0.15376917  0.26736701  0.30915982     0.18600
F482        F  0.19229369  0.30741947  0.29825041    -0.19200
C483        C  0.32190855  0.30462348  0.33449300    -0.20600
C484        C  0.31162408  0.31616896  0.37095062    -0.08700
C485        C  0.32279311  0.30553194  0.40755863     0.30200
C486        C  0.34351921  0.28361493  0.40738886    -0.20600
C487        C  0.35333805  0.27182834  0.37094193    -0.08700
C488        C  0.34253223  0.28264582  0.33441305     0.30200
F489        F  0.35237824  0.27253562  0.29860444    -0.19200
H490        H  0.31395344  0.31255998  0.30588913     0.18600
H491        H  0.35175124  0.27559283  0.43580927     0.18600
F492        F  0.31369398  0.31611280  0.44356470    -0.19200
C493        C  0.34033447  0.47569756  0.33963199    -0.20600
C494        C  0.35513085  0.48057119  0.37603440    -0.08700
C495        C  0.34784356  0.46402953  0.41008755     0.30200
C496        C  0.32617676  0.44317239  0.40763449    -0.20600
C497        C  0.31135450  0.43839161  0.37134585    -0.08700
C498        C  0.31860364  0.45481683  0.33719279     0.30200
F499        F  0.30440033  0.45119097  0.30174937    -0.19200
H500        H  0.34557047  0.48801928  0.31289723     0.18600
H501        H  0.32097477  0.43073619  0.43435620     0.18600
F502        F  0.34538924  0.98299510  0.45064162    -0.19200
C503        C  0.17321403  0.44399586  0.40515185    -0.20600
C504        C  0.18785825  0.43793998  0.36901950    -0.08700
C505        C  0.18046701  0.45335385  0.33396027     0.30200
C506        C  0.15871514  0.47423739  0.33529881    -0.20600
C507        C  0.14411463  0.48024596  0.37151992    -0.08700
C508        C  0.15161925  0.46492776  0.40651718     0.30200
F509        F  0.15204942  0.98331886  0.44582347    -0.19200
H510        H  0.17854660  0.43256914  0.43262868     0.18600
H511        H  0.15323226  0.48570886  0.30791268     0.18600
F512        F  0.19448187  0.44868005  0.29858392    -0.19200
C513        C  0.09701359  0.28081026  0.09015777    -0.20600
C514        C  0.10405836  0.26683963  0.12634701    -0.08700
C515        C  0.08993767  0.27502606  0.16211566     0.30200
C516        C  0.06899676  0.29661396  0.16140340    -0.20600
C517        C  0.06180507  0.31045730  0.12515403    -0.08700
C518        C  0.07615946  0.30247441  0.08944031     0.30200
F519        F  0.07026849  0.31561485  0.05382867    -0.19200
H520        H  0.10758279  0.27480529  0.06223747     0.18600
H521        H  0.05840128  0.30247970  0.18936277     0.18600
F522        F  0.09679493  0.26281784  0.19795851    -0.19200
C523        C  0.40378556  0.27984443  0.08705888    -0.20600
C524        C  0.39277117  0.26936040  0.12365158    -0.08700
C525        C  0.40286888  0.28110834  0.16002796     0.30200
C526        C  0.42433374  0.30235537  0.15977488    -0.20600
C527        C  0.43603038  0.31240745  0.12327268    -0.08700
C528        C  0.42526646  0.30118082  0.08670779     0.30200
F529        F  0.43561546  0.31046728  0.05065000    -0.19200
H530        H  0.39606327  0.27114629  0.05871860     0.18600
H531        H  0.43179202  0.31094629  0.18832382     0.18600
F532        F  0.39160336  0.27255309  0.19581176    -0.19200
C533        C  0.40337356  0.46412190  0.09466603    -0.20600
C534        C  0.39513036  0.47665028  0.13138893    -0.08700
C535        C  0.40858164  0.46762848  0.16716343     0.30200
C536        C  0.43000080  0.44640999  0.16591369    -0.20600
C537        C  0.43843338  0.43405881  0.12900545    -0.08700
C538        C  0.42480842  0.44308579  0.09331235     0.30200
F539        F  0.43190147  0.43148136  0.05703700    -0.19200
H540        H  0.39329642  0.97263156  0.06415138     0.18600
H541        H  0.44001388  0.43969443  0.19386015     0.18600
F542        F  0.40062559  0.47880671  0.20332100    -0.19200
C543        C  0.09702565  0.46186608  0.09192327    -0.20600
C544        C  0.10266007  0.47722657  0.12754826    -0.08700
C545        C  0.08638974  0.47096152  0.16237483     0.30200
C546        C  0.06546160  0.44919031  0.16157778    -0.20600
C547        C  0.06011751  0.43363062  0.12603790    -0.08700
C548        C  0.07590599  0.44033368  0.09100079     0.30200
F549        F  0.07145829  0.42571510  0.05603565    -0.19200
H550        H  0.10903936  0.46654324  0.06465028     0.18600
H551        H  0.05339533  0.44453407  0.18883503     0.18600
F552        F  0.09112232  0.48517283  0.19749895    -0.19200
C553        C  0.40683268  0.02941938  0.84435319    -0.20600
C554        C  0.39361969  0.02038245  0.88023996    -0.08700
C555        C  0.40213024  0.03310924  0.91689840     0.30200
C556        C  0.42384756  0.05423599  0.91744090    -0.20600
C557        C  0.43719027  0.06320836  0.88146546    -0.08700
C558        C  0.42825848  0.05069135  0.84475980     0.30200
F559        F  0.44019238  0.05883425  0.80911136    -0.19200
H560        H  0.40034672  0.02015739  0.81576915     0.18600
H561        H  0.43022017  0.06355292  0.94606121     0.18600
F562        F  0.39024761  0.52761400  0.95216460    -0.19200
C563        C  0.06885035  0.04874032  0.84173564    -0.20600
C564        C  0.06030576  0.06140369  0.87835985    -0.08700
C565        C  0.07269413  0.05135458  0.91450078     0.30200
C566        C  0.09350421  0.02948961  0.91362137    -0.20600
C567        C  0.10202154  0.01696679  0.87694875    -0.08700
C568        C  0.08936952  0.02668224  0.84095809     0.30200
F569        F  0.09729920  0.01541134  0.80487464    -0.19200
H570        H  0.05963649  0.05590423  0.81347497     0.18600
H571        H  0.10835768  0.52800942  0.94331684     0.18600
F572        F  0.06479857  0.06253947  0.95070333    -0.19200
C573        C  0.09515211  0.21640749  0.91060160    -0.20600
C574        C  0.10250131  0.22980330  0.87405566    -0.08700
C575        C  0.08823470  0.22140543  0.83853037     0.30200
C576        C  0.06727442  0.19965284  0.83970848    -0.20600
C577        C  0.06009053  0.18606218  0.87625776    -0.08700
C578        C  0.07413122  0.19478214  0.91185640     0.30200
F579        F  0.06792556  0.18224535  0.94783918    -0.19200
H580        H  0.10564458  0.22275844  0.93837843     0.18600
H581        H  0.05670384  0.19340761  0.81190120     0.18600
F582        F  0.09507337  0.23357616  0.80253732    -0.19200
C583        C  0.40704361  0.22086819  0.91268021    -0.20600
C584        C  0.39355584  0.22698030  0.87590005    -0.08700
C585        C  0.40153758  0.21158498  0.84122063     0.30200
C586        C  0.42336703  0.19086292  0.84315408    -0.20600
C587        C  0.43739910  0.18496255  0.87978140    -0.08700
C588        C  0.42883336  0.20003153  0.91475472     0.30200
F589        F  0.44169150  0.19500258  0.95080625    -0.19200
H590        H  0.40086742  0.23248789  0.93971246     0.18600
H591        H  0.42910698  0.17923702  0.81594851     0.18600
F592        F  0.38776059  0.21605833  0.80572806    -0.19200
C593        C  0.34110319  0.02885710  0.66363608    -0.20600
C594        C  0.35481338  0.02125487  0.62740567    -0.08700
C595        C  0.34653492  0.03500776  0.59149042     0.30200
C596        C  0.32497462  0.05590399  0.59188705    -0.20600
C597        C  0.31124242  0.06361060  0.62800681    -0.08700
C598        C  0.31951110  0.04990441  0.66408913     0.30200
F599        F  0.30664750  0.05653709  0.69969878    -0.19200
H600        H  0.34722841  0.01854852  0.69165672     0.18600
H601        H  0.31901123  0.06604165  0.56368728     0.18600
F602        F  0.36128616  0.52861412  0.55844490    -0.19200
C603        C  0.17961835  0.05066633  0.66063062    -0.20600
C604        C  0.18801140  0.06364628  0.62420356    -0.08700
C605        C  0.17428375  0.05496709  0.58823574     0.30200
C606        C  0.15256990  0.03381828  0.58910991    -0.20600
C607        C  0.14438040  0.02077776  0.62561666    -0.08700
C608        C  0.15810929  0.02946329  0.66141885     0.30200
F609        F  0.15027004  0.01810190  0.69744379    -0.19200
H610        H  0.18970636  0.05694695  0.68876731     0.18600
H611        H  0.15030977  0.52299028  0.56197494     0.18600
F612        F  0.18156412  0.06699067  0.55229641    -0.19200
C613        C  0.15856758  0.22124869  0.65853701    -0.20600
C614        C  0.14569580  0.22932835  0.62201905    -0.08700
C615        C  0.15445462  0.21565692  0.58617548     0.30200
C616        C  0.17595069  0.19447656  0.58706865    -0.20600
C617        C  0.18884104  0.18638321  0.62369049    -0.08700
C618        C  0.17977884  0.19991604  0.65956216     0.30200
F619        F  0.19142572  0.19275376  0.69572128    -0.24400
H620        H  0.15201452  0.23130604  0.68652734     0.18600
H621        H  0.18247630  0.18438870  0.55903078     0.18600
F622        F  0.14281901  0.22322771  0.55021155    -0.19200
C623        C  0.34768982  0.21524483  0.59054030    -0.20600
C624        C  0.35627667  0.22840477  0.62669115    -0.08700
C625        C  0.34372471  0.21921770  0.66313534     0.30200
C626        C  0.32227903  0.19779270  0.66300214    -0.20600
C627        C  0.31304712  0.18520907  0.62659005    -0.08700
C628        C  0.32634902  0.19389221  0.59032588     0.30200
F629        F  0.31873393  0.18195412  0.55446926    -0.19200
H630        H  0.35711333  0.22193947  0.56214819     0.18600
H631        H  0.31275005  0.19122214  0.69140324     0.18600
F632        F  0.35244593  0.23062679  0.69883176    -0.19200
N633        N  0.37254887  0.91895784  0.74946688    -0.35900
N634        N  0.39309583  0.87493074  0.69120512    -0.56500
N635        N  0.37969073  0.83145240  0.75230725    -0.35900
N636        N  0.35911823  0.87529323  0.81048728    -0.56500
C637        C  0.38314443  0.93592479  0.71938984     0.27700
C638        C  0.36635728  0.93656166  0.78126014     0.27700
C639        C  0.38658630  0.81390418  0.72069160     0.27600
C640        C  0.36915625  0.81432992  0.78234272     0.27600
C641        C  0.39334757  0.89822702  0.66658291     0.36300
C642        C  0.39642750  0.85135564  0.66744046     0.36300
C643        C  0.35574333  0.89894667  0.83414124     0.36300
C644        C  0.35853612  0.85195614  0.83512191     0.36300
C645        C  0.38365499  0.96444704  0.73245467    -0.21200
C646        C  0.37164560  0.96502304  0.76987787    -0.21200
C647        C  0.38206488  0.78544430  0.73228568    -0.21200
C648        C  0.36920982  0.78585080  0.76918911    -0.21200
C649        C  0.39694342  0.88940476  0.62695891    -0.22300
C650        C  0.39899680  0.85981204  0.62750634    -0.22300
C651        C  0.35281880  0.89049774  0.87402960    -0.22300
C652        C  0.35474672  0.86088454  0.87466771    -0.22300
C653        C  0.39030454  0.92734330  0.67921951    -0.17600
C654        C  0.35756754  0.92814703  0.82102916    -0.17600
C655        C  0.36166418  0.82274155  0.82258182    -0.17600
C656        C  0.39497884  0.82222575  0.68065805    -0.17600
H657        H  0.39129814  0.98341498  0.71654942     0.15300
H658        H  0.36748561  0.98472622  0.78632650     0.15300
H659        H  0.38751544  0.76593584  0.71616714     0.15300
H660        H  0.36140036  0.76683032  0.78472734     0.15300
H661        H  0.39722576  0.90270912  0.60015425     0.13600
H662        H  0.40089027  0.84615030  0.60114920     0.13600
H663        H  0.35086716  0.90418986  0.90035063     0.13600
H664        H  0.35435707  0.84767336  0.90154828     0.13600
H665        H  0.36763419  0.89717515  0.74703670     0.26800
H666        H  0.38398234  0.85336137  0.75455690     0.26800
N667        N  0.12020521  0.91641796  0.75047444    -0.35900
N668        N  0.10830723  0.87404406  0.68699148    -0.56500
N669        N  0.12821570  0.82893646  0.74380138    -0.35900
N670        N  0.14022385  0.87146288  0.80715440    -0.56500
C671        C  0.11403516  0.93457560  0.71933739     0.27700
C672        C  0.13010877  0.93292589  0.78156467     0.27700
C673        C  0.11870386  0.81237632  0.71255357     0.27600
C674        C  0.13515249  0.81081343  0.77466141     0.27600
C675        C  0.10530753  0.89812414  0.66419358     0.36300
C676        C  0.10797328  0.85120352  0.66146379     0.36300
C677        C  0.14016361  0.89423645  0.83282708     0.36300
C678        C  0.14346378  0.84736333  0.82983875     0.36300
C679        C  0.11823274  0.96281620  0.73228303    -0.21200
C680        C  0.13011854  0.96167474  0.76972972    -0.21200
C681        C  0.11967541  0.78351643  0.72402520    -0.21200
C682        C  0.13155398  0.78250800  0.76154210    -0.21200
C683        C  0.10295908  0.89044954  0.62390471    -0.22300
C684        C  0.10466241  0.86083044  0.62218967    -0.22300
C685        C  0.14332653  0.88455042  0.87206791    -0.22300
C686        C  0.14546259  0.85496788  0.87019666    -0.22300
C687        C  0.10660101  0.92701207  0.67869177    -0.17600
C688        C  0.13729880  0.92364769  0.82146596    -0.17600
C689        C  0.14291415  0.81848859  0.81518034    -0.17600
C690        C  0.11106120  0.82180870  0.67283534    -0.17600
H691        H  0.11335399  0.98266305  0.71670882     0.15300
H692        H  0.13756768  0.98036600  0.78637786     0.15300
H693        H  0.11298358  0.76464442  0.70712330     0.15300
H694        H  0.13677251  0.76270082  0.77705684     0.15300
H695        H  0.10131940  0.90464273  0.59810594     0.13600
H696        H  0.10440213  0.84802606  0.59487643     0.13600
H697        H  0.14336002  0.89729670  0.89943185     0.13600
H698        H  0.14720924  0.84074106  0.89594333     0.13600
H699        H  0.11590128  0.89448041  0.75163247     0.26800
H700        H  0.13165506  0.85101447  0.74296531     0.26800
N701        N  0.04342120  0.75312432  0.49318773    -0.35900
N702        N  0.50269428  0.76894184  0.55625556    -0.56500
N703        N  0.45734211  0.74898316  0.50033308    -0.35900
N704        N  0.49959503  0.73374624  0.43742715    -0.56500
C705        C  0.06151512  0.75930237  0.52439012     0.27700
C706        C  0.05985629  0.74274661  0.46240169     0.27700
C707        C  0.44114335  0.75991616  0.53103986     0.27600
C708        C  0.43911249  0.74303834  0.46918674     0.27600
C709        C  0.02488201  0.76966857  0.57874464     0.36300
C710        C  0.47998533  0.76957752  0.58207796     0.36300
C711        C  0.02137438  0.73338997  0.41053961     0.36300
C712        C  0.47539393  0.73043524  0.41500420     0.36300
C713        C  0.08970423  0.75453106  0.51177062    -0.21200
C714        C  0.08847286  0.74217812  0.47462377    -0.21200
C715        C  0.41246663  0.76087669  0.51904498    -0.21200
C716        C  0.41100246  0.74892285  0.48159357    -0.21200
C717        C  0.01686354  0.77188201  0.61892202    -0.22300
C718        C  0.48982235  0.77260614  0.62124292    -0.22300
C719        C  0.01204564  0.72976905  0.37121117    -0.22300
C720        C  0.48294490  0.72594850  0.37498195    -0.22300
C721        C  0.05384462  0.76713576  0.56484940    -0.17600
C722        C  0.05072976  0.73574780  0.42237763    -0.17600
C723        C  0.44659511  0.73368643  0.42921320    -0.17600
C724        C  0.45052082  0.76685021  0.57096687    -0.17600
H725        H  0.10960676  0.75931867  0.52729319     0.15300
H726        H  0.10704570  0.73412564  0.45837931     0.15300
H727        H  0.39398540  0.76869961  0.53579040     0.15300
H728        H  0.39094357  0.74507233  0.46585667     0.15300
H729        H  0.03080156  0.77225113  0.64507406     0.13600
H730        H  0.47715457  0.77296349  0.64866483     0.13600
H731        H  0.02504473  0.72875910  0.34412965     0.13600
H732        H  0.46873463  0.72364534  0.34931315     0.13600
H733        H  0.02160149  0.75760703  0.49187458     0.26800
H734        H  0.47897803  0.74355429  0.50191116     0.26800
C735        C  0.38008342  0.75218409  0.62502048     0.03800
C736        C  0.37549578  0.77870294  0.64438443    -0.12300
C737        C  0.39830689  0.79850823  0.64973266     0.01300
C738        C  0.42385968  0.79468219  0.62679334    -0.10900
C739        C  0.42733228  0.76961482  0.60268316     0.03800
C740        C  0.40658616  0.74738193  0.60576447    -0.10300
H741        H  0.35474987  0.78303929  0.65833748     0.09400
H742        H  0.44057065  0.81116183  0.62729061     0.06900
H743        H  0.41024093  0.72708062  0.59018082     0.06800
C744        C  0.12501365  0.75218334  0.61726108     0.03800
C745        C  0.09829391  0.74729729  0.59869641    -0.12300
C746        C  0.07806714  0.76986920  0.59500651     0.01300
C747        C  0.08221552  0.79516187  0.61838368    -0.10900
C748        C  0.10780254  0.79880276  0.64115066     0.03800
C749        C  0.13012663  0.77860346  0.63646565    -0.10300
H750        H  0.09416369  0.72664114  0.58422558     0.09400
H751        H  0.06567518  0.81170039  0.61903641     0.06900
H752        H  0.15068752  0.78228893  0.65134817     0.06800
N753        N  0.45473051  0.99682836  0.49972175    -0.35900
N754        N  0.99930722  0.51855197  0.44036379    -0.56500
N755        N  0.04191632  0.00075950  0.50199924    -0.35900
N756        N  0.99774493  0.98405854  0.56168536    -0.56500
C757        C  0.44042808  0.50987331  0.47242621     0.27700
C758        C  0.43765617  0.99004548  0.53173576     0.27700
C759        C  0.06087783  0.51054918  0.46753433     0.27600
C760        C  0.05913443  0.99212934  0.53288586     0.27600
C761        C  0.47729300  0.51806928  0.41756666     0.36300
C762        C  0.02242628  0.51946062  0.41538861     0.36300
C763        C  0.47565479  0.98127391  0.58473333     0.36300
C764        C  0.02126848  0.98214996  0.58581841     0.36300
C765        C  0.41206652  0.50601767  0.48513832    -0.21200
C766        C  0.40905903  0.99397799  0.52070068    -0.21200
C767        C  0.08953482  0.51134185  0.47966948    -0.21200
C768        C  0.08772438  0.99342759  0.52022871    -0.21200
C769        C  0.48518181  0.51915050  0.37721995    -0.22300
C770        C  0.01327123  0.52246297  0.37587767    -0.22300
C771        C  0.48422974  0.97940820  0.62468220    -0.22300
C772        C  0.01256302  0.97839421  0.62544284    -0.22300
C773        C  0.44841084  0.51699737  0.43177406    -0.17600
C774        C  0.44651799  0.98273991  0.57179550    -0.17600
C775        C  0.05049525  0.98470128  0.57304063    -0.17600
C776        C  0.05169299  0.51725533  0.42748115    -0.17600
H777        H  0.39232784  0.51056132  0.46908147     0.15300
H778        H  0.38982503  0.98836005  0.53738294     0.15300
H779        H  0.10814788  0.51890675  0.46289539     0.15300
H780        H  0.10701567  0.98730004  0.53641010     0.15300
H781        H  0.47115889  0.51947080  0.35115595     0.13600
H782        H  0.02641634  0.52305049  0.34889610     0.13600
H783        H  0.47065374  0.97845053  0.65122733     0.13600
H784        H  0.02602755  0.97708554  0.65200232     0.13600
H785        H  0.47653074  0.99260665  0.49727033     0.26800
H786        H  0.01980233  0.00301191  0.50307305     0.26800
C787        C  0.12474622  0.49832162  0.62624933     0.03800
C788        C  0.12615124  0.97163212  0.64481042    -0.12300
C789        C  0.10352129  0.95138984  0.64886006     0.01300
C790        C  0.07801042  0.95558952  0.62616467    -0.10900
C791        C  0.07423438  0.98127711  0.60361842     0.03800
C792        C  0.09892823  0.50348622  0.60573257    -0.10300
H793        H  0.14679835  0.96747987  0.65909733     0.09400
H794        H  0.06138841  0.93901155  0.62591868     0.06900
H795        H  0.09565016  0.52432883  0.59146535     0.06800
C796        C  0.38104597  0.50149278  0.63058439     0.03800
C797        C  0.37174873  0.97195577  0.64585121    -0.12300
C798        C  0.39364099  0.95107202  0.64879684     0.01300
C799        C  0.41898966  0.95463356  0.62555819    -0.10900
C800        C  0.42319714  0.98016596  0.60300969     0.03800
C801        C  0.40734810  0.50610719  0.61084027    -0.10300
H802        H  0.35126749  0.96839761  0.66105742     0.09400
H803        H  0.43527198  0.93783366  0.62505787     0.06900
H804        H  0.41125979  0.52661291  0.59587123     0.06800
N805        N  0.29386946  0.75279552  0.00215871    -0.35900
N806        N  0.24845529  0.73237718  0.05796644    -0.56500
N807        N  0.20626696  0.74648198  0.99490698    -0.35900
N808        N  0.25149272  0.76684291  0.93894626    -0.56500
C809        C  0.31012535  0.74205097  0.03285844     0.27700
C810        C  0.31212462  0.75957792  0.97130487     0.27700
C811        C  0.18802094  0.73990243  0.02583190     0.27600
C812        C  0.18991359  0.75646705  0.96385575     0.27600
C813        C  0.27111979  0.73157285  0.08363266     0.36300
C814        C  0.22429666  0.73017486  0.08076009     0.36300
C815        C  0.27575237  0.76972652  0.91640757     0.36300
C816        C  0.22884214  0.76718884  0.91309520     0.36300
C817        C  0.33893772  0.74235236  0.02118790    -0.21200
C818        C  0.34032275  0.75481084  0.98402822    -0.21200
C819        C  0.15980312  0.74429978  0.01292990    -0.21200
C820        C  0.16110803  0.75622222  0.97549172    -0.21200
C821        C  0.26133492  0.72883944  0.12292446    -0.22300
C822        C  0.23174876  0.72797067  0.12112996    -0.22300
C823        C  0.26831069  0.77223839  0.87604550    -0.22300
C824        C  0.23874006  0.77060250  0.87398684    -0.22300
C825        C  0.30052094  0.73377433  0.07233201    -0.17600
C826        C  0.30459205  0.76783043  0.93093504    -0.17600
C827        C  0.19939077  0.76372537  0.92404164    -0.17600
C828        C  0.19555239  0.73177912  0.06621816    -0.17600
H829        H  0.35750914  0.73464428  0.03769739     0.15300
H830        H  0.36031405  0.75920942  0.96829487     0.15300
H831        H  0.13979612  0.73967049  0.02845677     0.15300
H832        H  0.14245327  0.76334930  0.95862902     0.15300
H833        H  0.27403928  0.72847078  0.15027236     0.13600
H834        H  0.21745414  0.72695741  0.14692621     0.13600
H835        H  0.28260446  0.77369907  0.85030024     0.13600
H836        H  0.22616714  0.77082183  0.84652565     0.13600
H837        H  0.27196136  0.75698681  0.00322821     0.26800
H838        H  0.22817858  0.74232046  0.99384928     0.26800
C839        C  0.37414977  0.75120650  0.87524036     0.03800
C840        C  0.34819658  0.74749039  0.89612028    -0.12300
C841        C  0.32883636  0.77062201  0.90084525     0.01300
C842        C  0.33317921  0.79587680  0.87748242    -0.10900
C843        C  0.35820933  0.79885491  0.85318317     0.03800
C844        C  0.37968147  0.77739257  0.85565512    -0.10300
H845        H  0.34399866  0.72708665  0.91121381     0.09400
H846        H  0.31705364  0.81282357  0.87788678     0.06900
H847        H  0.39995493  0.78018281  0.83962907     0.06800
C848        C  0.12963720  0.74763249  0.86974233     0.03800
C849        C  0.12468227  0.77370555  0.84960797    -0.12300
C850        C  0.14692130  0.79422763  0.84496817     0.01300
C851        C  0.17239154  0.79098466  0.86819413    -0.10900
C852        C  0.17637401  0.76593297  0.89211427     0.03800
C853        C  0.15612362  0.74328858  0.88893496    -0.10300
H854        H  0.10394552  0.77733574  0.83528831     0.09400
H855        H  0.18860182  0.80796244  0.86818639     0.06900
H856        H  0.15984256  0.72317125  0.90490750     0.06800
N857        N  0.37810029  0.58096031  0.25130610    -0.35900
N858        N  0.35612961  0.62385449  0.19333159    -0.56500
N859        N  0.36830491  0.66805107  0.25491139    -0.35900
N860        N  0.39068982  0.62528284  0.31252853    -0.56500
C861        C  0.36735361  0.56348504  0.22175417     0.27700
C862        C  0.38486482  0.56380614  0.28329016     0.27700
C863        C  0.36094955  0.68526075  0.22322480     0.27600
C864        C  0.37852170  0.68560597  0.28474772     0.27600
C865        C  0.35645500  0.60048638  0.16868586     0.36300
C866        C  0.35306104  0.64740153  0.16951509     0.36300
C867        C  0.39462323  0.60183468  0.33619813     0.36300
C868        C  0.39090543  0.64861294  0.33719099     0.36300
C869        C  0.36736423  0.53516280  0.23543956    -0.21200
C870        C  0.38012218  0.53516182  0.27234148    -0.21200
C871        C  0.36459639  0.71390265  0.23475392    -0.21200
C872        C  0.37765604  0.71396222  0.27143125    -0.21200
C873        C  0.35348451  0.60921114  0.12899278    -0.22300
C874        C  0.35133913  0.63884351  0.12949409    -0.22300
C875        C  0.39752136  0.61042219  0.37608386    -0.22300
C876        C  0.39507664  0.63994462  0.37670056    -0.22300
C877        C  0.35961282  0.57142326  0.18148015    -0.17600
C878        C  0.39318405  0.57266330  0.32316776    -0.17600
C879        C  0.38707983  0.67761012  0.32469000    -0.17600
C880        C  0.35367071  0.67659671  0.18286376    -0.17600
H881        H  0.35947669  0.51597330  0.22031601     0.15300
H882        H  0.38501754  0.51573112  0.28896386     0.15300
H883        H  0.35911546  0.73324109  0.21833454     0.15300
H884        H  0.38572126  0.73313471  0.28631415     0.15300
H885        H  0.35370713  0.59580274  0.10224769     0.13600
H886        H  0.34977393  0.65247429  0.10310714     0.13600
H887        H  0.39978451  0.59689703  0.40246618     0.13600
H888        H  0.39530768  0.65326426  0.40352595     0.13600
H889        H  0.38262549  0.60281417  0.24860985     0.26800
H890        H  0.36498614  0.64596964  0.25694968     0.26800
N891        N  0.20381230  0.99246768  0.00271270    -0.35900
N892        N  0.25043607  0.51112560  0.06443735    -0.56500
N893        N  0.29137490  0.99913804  0.99931609    -0.35900
N894        N  0.24708492  0.97911832  0.94093956    -0.56500
C895        C  0.18903671  0.50159908  0.03633259     0.27700
C896        C  0.18609360  0.98549158  0.97132539     0.27700
C897        C  0.31160883  0.50388296  0.03521946     0.27600
C898        C  0.30802631  0.98820780  0.96914458     0.27600
C899        C  0.22698940  0.51269485  0.08880674     0.36300
C900        C  0.27400559  0.51505977  0.08801283     0.36300
C901        C  0.22336699  0.97641265  0.91732566     0.36300
C902        C  0.27031568  0.97925433  0.91609098     0.36300
C903        C  0.16042604  0.50050670  0.02374381    -0.21200
C904        C  0.15764931  0.98947360  0.98352194    -0.21200
C905        C  0.33991242  0.49790187  0.02402729    -0.21200
C906        C  0.33639051  0.98652699  0.98236377    -0.21200
C907        C  0.23575556  0.51746370  0.12820143    -0.22300
C908        C  0.26540273  0.51901325  0.12770149    -0.22300
C909        C  0.23170844  0.97445786  0.87723642    -0.22300
C910        C  0.26134449  0.97635077  0.87646417    -0.22300
C911        C  0.19777901  0.50966546  0.07628784    -0.17600
C912        C  0.19425266  0.97786335  0.93089810    -0.17600
C913        C  0.29947556  0.98211772  0.92862114    -0.17600
C914        C  0.30321383  0.51308356  0.07497808    -0.17600
H915        H  0.14120372  0.50698119  0.03988386     0.15300
H916        H  0.13795482  0.98470807  0.96734201     0.15300
H917        H  0.35958326  0.50193429  0.04047005     0.15300
H918        H  0.35503392  0.97843669  0.96622742     0.15300
H919        H  0.22233508  0.51895859  0.15484754     0.13600
H920        H  0.27897394  0.52167123  0.15398024     0.13600
H921        H  0.21794720  0.97307773  0.85096458     0.13600
H922        H  0.27459212  0.97642076  0.84957101     0.13600
H923        H  0.22586282  0.98916882  0.00412076     0.26800
H924        H  0.26991954  0.00512337  0.99664823     0.26800
C925        C  0.12736539  0.49752016  0.87823109     0.03800
C926        C  0.15359856  0.50143556  0.89853588    -0.12300
C927        C  0.17033469  0.97519347  0.90020452     0.01300
C928        C  0.16608062  0.95001749  0.87654043    -0.10900
C929        C  0.14070346  0.94685113  0.85302533     0.03800
C930        C  0.11879052  0.96769475  0.85689173    -0.10300
H931        H  0.15745882  0.52137804  0.91495439     0.09400
H932        H  0.18237987  0.93323661  0.87625187     0.06900
H933        H  0.09832476  0.96445829  0.84158333     0.06800
C934        C  0.37504427  0.49339925  0.88247643     0.03800
C935        C  0.37611235  0.97176064  0.85830023    -0.12300
C936        C  0.35359096  0.95178038  0.85181253     0.01300
C937        C  0.32753418  0.95524441  0.87363147    -0.10900
C938        C  0.32334197  0.98001138  0.89800794     0.03800
C939        C  0.34818317  0.49908875  0.90024418    -0.10300
H940        H  0.39707328  0.96812924  0.84452774     0.09400
H941        H  0.31096092  0.93865603  0.87211568     0.06900
H942        H  0.34457661  0.51956184  0.91536674     0.06800
N943        N  0.12538698  0.58081885  0.24896314    -0.35900
N944        N  0.13989799  0.62351562  0.18657098    -0.56500
N945        N  0.11947881  0.66825156  0.24297339    -0.35900
N946        N  0.10522949  0.62533809  0.30555337    -0.56500
C947        C  0.13261246  0.56281942  0.21814409     0.27700
C948        C  0.11477185  0.56411610  0.27934945     0.27700
C949        C  0.12994247  0.68487602  0.21237017     0.27600
C950        C  0.11329225  0.68617774  0.27438713     0.27600
C951        C  0.14325445  0.59944378  0.16382051     0.36300
C952        C  0.14096980  0.64636549  0.16113933     0.36300
C953        C  0.10448644  0.60243638  0.33089803     0.36300
C954        C  0.10294819  0.64931622  0.32866327     0.36300
C955        C  0.12826105  0.53447898  0.23063861    -0.21200
C956        C  0.11522865  0.53537622  0.26733386    -0.21200
C957        C  0.13018419  0.71355658  0.22467221    -0.21200
C958        C  0.11836102  0.71453584  0.26226620    -0.21200
C959        C  0.14675707  0.60712260  0.12371377    -0.22300
C960        C  0.14524043  0.63676081  0.12201532    -0.22300
C961        C  0.10149555  0.61187170  0.37029903    -0.22300
C962        C  0.10051591  0.64149818  0.36891738    -0.22300
C963        C  0.14118574  0.57057591  0.17805044    -0.17600
C964        C  0.10719728  0.57315484  0.31914978    -0.17600
C965        C  0.10506924  0.67820380  0.31461502    -0.17600
C966        C  0.13775333  0.67572598  0.17259863    -0.17600
H967        H  0.13392758  0.51469238  0.21529550     0.15300
H968        H  0.10788730  0.51648020  0.28366268     0.15300
H969        H  0.13791443  0.73228039  0.20831343     0.15300
H970        H  0.11444925  0.73437339  0.27859082     0.15300
H971        H  0.14902779  0.59290382  0.09798889     0.13600
H972        H  0.14629540  0.64958435  0.09479285     0.13600
H973        H  0.10108523  0.59892537  0.39744572     0.13600
H974        H  0.09940098  0.65557869  0.39493577     0.13600
H975        H  0.12962720  0.60274661  0.25042682     0.26800
H976        H  0.11487312  0.64638955  0.24141398     0.26800
C977        C  0.12514724  0.99805532  0.12670219     0.03800
C978        C  0.12117964  0.52670143  0.14377634    -0.12300
C979        C  0.14428505  0.54625372  0.14832877     0.01300
C980        C  0.17035069  0.54078977  0.12741139    -0.10900
C981        C  0.17407693  0.51429505  0.10666049     0.03800
C982        C  0.15159810  0.99269952  0.10807614    -0.10300
H983        H  0.10019265  0.53194287  0.15639248     0.09400
H984        H  0.18735931  0.55696490  0.12713484     0.06900
H985        H  0.15502583  0.97206477  0.09320070     0.06800
C986        C  0.36892828  0.99667381  0.12941650     0.03800
C987        C  0.34291340  0.99299005  0.10878924    -0.12300
C988        C  0.32681756  0.51703070  0.10590176     0.01300
C989        C  0.33106109  0.54320746  0.12752810    -0.10900
C990        C  0.35625454  0.54719147  0.15130302     0.03800
C991        C  0.37811131  0.52616777  0.14912271    -0.10300
H992        H  0.33825661  0.97229999  0.09468950     0.09400
H993        H  0.31487085  0.56005781  0.12615149     0.06900
H994        H  0.39863223  0.52996747  0.16404476     0.06800
C995        C  0.36967804  0.74654156  0.12860942     0.03800
C996        C  0.34377742  0.75187233  0.10882134    -0.12300
C997        C  0.32327651  0.72979521  0.10411490     0.01300
C998        C  0.32612930  0.70431187  0.12765851    -0.10900
C999        C  0.35108699  0.70026092  0.15181851     0.03800
C1000       C  0.37396120  0.72016951  0.14799707    -0.10300
H1001       H  0.34079960  0.77242241  0.09358846     0.09400
H1002       H  0.30932669  0.68792879  0.12711421     0.06900
H1003       H  0.39432647  0.71623240  0.16319267     0.06800
C1004       C  0.12453073  0.74604361  0.11827026     0.03800
C1005       C  0.15139875  0.75098543  0.10031177    -0.12300
C1006       C  0.17131930  0.72837176  0.09603490     0.01300
C1007       C  0.16706221  0.70281224  0.11878772    -0.10900
C1008       C  0.14134410  0.69901702  0.14134323     0.03800
C1009       C  0.11914868  0.71943421  0.13694438    -0.10300
H1010       H  0.15581662  0.77173374  0.08628391     0.09400
H1011       H  0.18361813  0.68628733  0.11918101     0.06900
H1012       H  0.09836753  0.71547079  0.15109603     0.06800
C1013       C  0.12127112  0.00075374  0.37601897     0.03800
C1014       C  0.12651337  0.52953629  0.35396578    -0.12300
C1015       C  0.10416489  0.54985528  0.35035119     0.01300
C1016       C  0.07877468  0.54595516  0.37345600    -0.10900
C1017       C  0.07498734  0.52042740  0.39631171     0.03800
C1018       C  0.09488673  0.99540701  0.39516787    -0.10300
H1019       H  0.14695653  0.53347917  0.33884864     0.09400
H1020       H  0.06221842  0.56248527  0.37361521     0.06900
H1021       H  0.09143049  0.97481443  0.41011982     0.06800
C1022       C  0.37319622  0.00367729  0.37926581     0.03800
C1023       C  0.37309558  0.52995108  0.35980021    -0.12300
C1024       C  0.39608217  0.54940092  0.35448923     0.01300
C1025       C  0.42141560  0.54543536  0.37759522    -0.10900
C1026       C  0.42455628  0.52028068  0.40145877     0.03800
C1027       C  0.39955283  0.99751303  0.39752757    -0.10300
H1028       H  0.35246609  0.53436944  0.34560478     0.09400
H1029       H  0.43839063  0.56164846  0.37703059     0.06900
H1030       H  0.40225578  0.97699656  0.41292736     0.06800
C1031       C  0.37674160  0.75009149  0.37528017     0.03800
C1032       C  0.37007744  0.72317179  0.35828715    -0.12300
C1033       C  0.39134910  0.70164852  0.35490775     0.01300
C1034       C  0.41703607  0.70484687  0.37767954    -0.10900
C1035       C  0.42236357  0.73071271  0.39931486     0.03800
C1036       C  0.40358619  0.75415673  0.39367496    -0.10300
H1037       H  0.34915880  0.71988032  0.34425197     0.09400
H1038       H  0.43285423  0.68762143  0.37823897     0.06900
H1039       H  0.40882891  0.77501604  0.40685015     0.06800
C1040       C  0.12224491  0.74739172  0.36993633     0.03800
C1041       C  0.12594205  0.72095864  0.35031122    -0.12300
C1042       C  0.10247020  0.70206495  0.34502099     0.01300
C1043       C  0.07699595  0.70677074  0.36766556    -0.10900
C1044       C  0.07414323  0.73211631  0.39123680     0.03800
C1045       C  0.09570796  0.75354714  0.38822142    -0.10300
H1046       H  0.14650394  0.71612440  0.33608938     0.09400
H1047       H  0.05983343  0.69075946  0.36725524     0.06900
H1048       H  0.09277805  0.77412228  0.40341983     0.06800
O1049       O  0.46785892  0.90144075  0.09207420    -0.71100
O1050       O  0.02654527  0.84432150  0.08322386    -0.71300
O1051       O  0.46743813  0.84371436  0.09013372    -0.71200
O1052       O  0.02587806  0.90226484  0.08569067    -0.71200
O1053       O  0.02543220  0.90154146  0.15108636    -0.71100
O1054       O  0.46892565  0.84272506  0.15550191    -0.71200
O1055       O  0.02752088  0.84392876  0.14863399    -0.71100
O1056       O  0.46889858  0.90038045  0.15742937    -0.71300
V1057       V  0.49660149  0.87255203  0.09105498     1.35200
V1058       V  0.49779192  0.87149655  0.15391456     1.35200
C1059       C  0.45825394  0.91051857  0.12538085     0.78100
C1060       C  0.03704485  0.83442676  0.11552184     0.78200
C1061       C  0.45828725  0.83337558  0.12301564     0.78100
C1062       C  0.03544056  0.91190234  0.11875800     0.78000
O1063       O  0.27668387  0.90551202  0.34163432    -0.71100
O1064       O  0.22173729  0.84479544  0.33873780    -0.71300
O1065       O  0.21898600  0.90286313  0.33946920    -0.71200
O1066       O  0.27950273  0.84786219  0.34093276    -0.71200
O1067       O  0.27792548  0.84704300  0.40631879    -0.71100
O1068       O  0.21844897  0.90290352  0.40487364    -0.71200
O1069       O  0.22008820  0.84496090  0.40411015    -0.71100
O1070       O  0.27603106  0.90467774  0.40702741    -0.71300
V1071       V  0.24917703  0.87523198  0.34143103     1.35200
V1072       V  0.24807793  0.87486021  0.40430208     1.35200
C1073       C  0.28591949  0.91527808  0.37477189     0.78100
C1074       C  0.21149294  0.83451790  0.37100547     0.78200
C1075       C  0.20878717  0.91270889  0.37203934     0.78100
C1076       C  0.28917429  0.83824563  0.37388901     0.78000
O1077       O  0.22357825  0.59551080  0.59398871    -0.71100
O1078       O  0.28121271  0.65359736  0.59228377    -0.71300
O1079       O  0.28130013  0.59595572  0.59558318    -0.71200
O1080       O  0.22321689  0.65339912  0.59125026    -0.71200
O1081       O  0.22217695  0.65468070  0.65660710    -0.71100
O1082       O  0.28071038  0.59784335  0.66093800    -0.71200
O1083       O  0.28006772  0.65567185  0.65761804    -0.71100
O1084       O  0.22283025  0.59664705  0.65934761    -0.71300
V1085       V  0.25226794  0.62464367  0.59455884     1.35200
V1086       V  0.25143228  0.62620435  0.65738900     1.35200
C1087       C  0.21350135  0.58594481  0.62674031     0.78100
C1088       C  0.29068029  0.66441696  0.62461345     0.78200
C1089       C  0.29107989  0.58726462  0.62898705     0.78100
C1090       C  0.21280392  0.66390966  0.62331134     0.78000
O1091       O  0.02864328  0.59396773  0.84760025    -0.71100
O1092       O  0.47017996  0.65091691  0.84307086    -0.71300
O1093       O  0.02886114  0.65164753  0.84566157    -0.71200
O1094       O  0.47147926  0.59272716  0.84496134    -0.71200
O1095       O  0.47167703  0.59429675  0.91034586    -0.71100
O1096       O  0.02833679  0.65305227  0.91103499    -0.71200
O1097       O  0.47127452  0.65230742  0.90839594    -0.71100
O1098       O  0.02849626  0.59519710  0.91299197    -0.71300
V1099       V  0.49976094  0.62248405  0.84464613     1.35200
V1100       V  0.50036932  0.62356213  0.90748119     1.35200
C1101       C  0.03853129  0.58481845  0.88070006     0.78100
C1102       C  0.46072502  0.66145507  0.87571446     0.78200
C1103       C  0.03874431  0.66203093  0.87805974     0.78100
C1104       C  0.46213631  0.58316267  0.87819831     0.78000
C1105       C  0.17608111  0.80313353  0.40653194    -0.20600
C1106       C  0.18971148  0.81120254  0.37040887    -0.08700
C1107       C  0.18189882  0.79714429  0.33434472     0.30200
C1108       C  0.16019417  0.77609857  0.33456325    -0.20600
C1109       C  0.14597572  0.76876649  0.37055018    -0.08700
C1110       C  0.15444205  0.78213272  0.40670333     0.30200
F1111       F  0.14214554  0.77469256  0.44233578    -0.19200
H1112       H  0.18192902  0.81331857  0.43479908     0.18600
H1113       H  0.15410174  0.76590799  0.30640970     0.18600
F1114       F  0.19502536  0.80371807  0.29888095    -0.19200
C1115       C  0.32001680  0.80249608  0.33857124    -0.20600
C1116       C  0.31276022  0.81699123  0.37428795    -0.08700
C1117       C  0.32792256  0.81060550  0.40992446     0.30200
C1118       C  0.34907171  0.78913471  0.40988347    -0.20600
C1119       C  0.35547486  0.77382978  0.37442035    -0.08700
C1120       C  0.34114810  0.78114157  0.33853465     0.30200
F1121       F  0.34768764  0.76795356  0.30323339    -0.19200
H1122       H  0.30899468  0.80735246  0.31060868     0.18600
H1123       H  0.36004636  0.78408524  0.43779395     0.18600
F1124       F  0.32243514  0.82507202  0.44472658    -0.19200
C1125       C  0.34153755  0.97017596  0.34161141    -0.20600
C1126       C  0.35020324  0.98181439  0.37863063    -0.08700
C1127       C  0.33756770  0.97177344  0.41444829     0.30200
C1128       C  0.31642723  0.95021924  0.41299431    -0.20600
C1129       C  0.30782540  0.93835466  0.37584775    -0.08700
C1130       C  0.32062532  0.94853886  0.34006191     0.30200
F1131       F  0.31341925  0.93734772  0.30357667    -0.19200
H1132       H  0.35142297  0.97739365  0.31382877     0.18600
H1133       H  0.30685953  0.94278614  0.44096032     0.18600
F1134       F  0.36093127  0.46849015  0.44610984    -0.19200
C1135       C  0.17909438  0.94878409  0.40889278    -0.20600
C1136       C  0.18647568  0.93541309  0.37224720    -0.08700
C1137       C  0.17267638  0.94433482  0.33655628     0.30200
C1138       C  0.15144412  0.96573290  0.33801102    -0.20600
C1139       C  0.14378864  0.97848173  0.37484426    -0.08700
C1140       C  0.15801467  0.97021017  0.41020657     0.30200
F1141       F  0.13878656  0.47076509  0.44239444    -0.19200
H1142       H  0.18980575  0.94282101  0.43666572     0.18600
H1143       H  0.14076710  0.97218459  0.31043702     0.18600
F1144       F  0.17941733  0.93232405  0.30040490    -0.19200
C1145       C  0.09628455  0.78358993  0.08133721    -0.20600
C1146       C  0.10213643  0.76871757  0.11735432    -0.08700
C1147       C  0.08665049  0.77586756  0.15237882     0.30200
C1148       C  0.06561345  0.79726113  0.15124223    -0.20600
C1149       C  0.05956296  0.81202377  0.11530192    -0.08700
C1150       C  0.07514116  0.80508437  0.08018695     0.30200
F1151       F  0.07030311  0.81922847  0.04499960    -0.19200
H1152       H  0.10794124  0.77842831  0.05395896     0.18600
H1153       H  0.05398662  0.80223571  0.17873809     0.18600
F1154       F  0.09228597  0.76277566  0.18805943    -0.19200
C1155       C  0.40370000  0.77725719  0.09018440    -0.20600
C1156       C  0.39261682  0.76837901  0.12749053    -0.08700
C1157       C  0.40296049  0.78096812  0.16310992     0.30200
C1158       C  0.42439886  0.80209568  0.16129780    -0.20600
C1159       C  0.43571518  0.81099761  0.12396895    -0.08700
C1160       C  0.42517326  0.79838282  0.08827830     0.30200
F1161       F  0.43559892  0.80624433  0.05162035    -0.19200
H1162       H  0.39578275  0.76768201  0.06249972     0.18600
H1163       H  0.43194354  0.81166327  0.18920189     0.18600
F1164       F  0.39178484  0.77355030  0.19947128    -0.19200
C1165       C  0.40144241  0.96387336  0.09212100    -0.20600
C1166       C  0.39068192  0.97360186  0.12913339    -0.08700
C1167       C  0.40179726  0.96223983  0.16512312     0.30200
C1168       C  0.42374526  0.94156061  0.16381273    -0.20600
C1169       C  0.43496002  0.93217210  0.12662836    -0.08700
C1170       C  0.42342918  0.94345788  0.09069579     0.30200
F1171       F  0.43352415  0.93514125  0.05405576    -0.19200
H1172       H  0.39340772  0.47081111  0.06676325     0.18600
H1173       H  0.43201930  0.93300057  0.19188425     0.18600
F1174       F  0.39127457  0.97092169  0.20135888    -0.19200
C1175       C  0.09285790  0.96580489  0.08716551    -0.20600
C1176       C  0.10202795  0.97624631  0.12474923    -0.08700
C1177       C  0.08910207  0.96571657  0.16006328     0.30200
C1178       C  0.06732491  0.94492779  0.15770537    -0.20600
C1179       C  0.05799545  0.93441007  0.12012999    -0.08700
C1180       C  0.07088989  0.94514660  0.08470521     0.30200
F1181       F  0.06248717  0.93569540  0.04776933    -0.19200
H1182       H  0.10257866  0.97385196  0.05965107     0.18600
H1183       H  0.05788947  0.93694283  0.18546133     0.18600
F1184       F  0.09802275  0.97492808  0.19684515    -0.19200
C1185       C  0.41441607  0.52042762  0.84710683    -0.20600
C1186       C  0.39829165  0.51557034  0.88242529    -0.08700
C1187       C  0.40423378  0.53243284  0.91681512     0.30200
C1188       C  0.42515576  0.55424961  0.91523660    -0.20600
C1189       C  0.44065069  0.55955924  0.87957147    -0.08700
C1190       C  0.43548713  0.54203893  0.84565329     0.30200
F1191       F  0.45091354  0.54553493  0.81114420    -0.19200
H1192       H  0.41041879  0.50782063  0.82017152     0.18600
H1193       H  0.42906444  0.56717104  0.94195033     0.18600
F1194       F  0.38999959  0.02466189  0.95225022    -0.19200
C1195       C  0.06869408  0.54898863  0.84482398    -0.20600
C1196       C  0.06123778  0.56257663  0.88110270    -0.08700
C1197       C  0.07589255  0.55490523  0.91669014     0.30200
C1198       C  0.09753322  0.53385481  0.91558259    -0.20600
C1199       C  0.10483898  0.52018132  0.87913351    -0.08700
C1200       C  0.09022821  0.52814725  0.84370172     0.30200
F1201       F  0.09706606  0.51642847  0.80755529    -0.19200
H1202       H  0.05788591  0.55454705  0.81695271     0.18600
H1203       H  0.10277956  0.02209486  0.94172269     0.18600
F1204       F  0.06959386  0.56782176  0.95238701    -0.19200
C1205       C  0.09894148  0.71328275  0.90926463    -0.20600
C1206       C  0.10672427  0.72533405  0.87192027    -0.08700
C1207       C  0.09222523  0.71622382  0.83696047     0.30200
C1208       C  0.07015746  0.69574138  0.83944742    -0.20600
C1209       C  0.06202329  0.68390854  0.87676463    -0.08700
C1210       C  0.07673355  0.69276450  0.91180811     0.30200
F1211       F  0.06991727  0.68151861  0.94839986    -0.19200
H1212       H  0.10983076  0.72005262  0.93659021     0.18600
H1213       H  0.05941452  0.68914396  0.81192502     0.18600
F1214       F  0.09973434  0.72660948  0.80019714    -0.19200
C1215       C  0.40752723  0.71832520  0.91152484    -0.20600
C1216       C  0.39585390  0.72791163  0.87499648    -0.08700
C1217       C  0.40502499  0.71518045  0.83874615     0.30200
C1218       C  0.42595970  0.69342017  0.83917193    -0.20600
C1219       C  0.43808573  0.68404002  0.87573100    -0.08700
C1220       C  0.42850143  0.69667777  0.91204939     0.30200
F1221       F  0.43948841  0.68840677  0.94813901    -0.19200
H1222       H  0.40063926  0.72794018  0.93971878     0.18600
H1223       H  0.43267916  0.68392824  0.81082385     0.18600
F1224       F  0.39332546  0.72333106  0.80306746    -0.19200
C1225       C  0.34524603  0.53228457  0.66674150    -0.20600
C1226       C  0.35851639  0.52396776  0.63048962    -0.08700
C1227       C  0.34953916  0.53662678  0.59416897     0.30200
C1228       C  0.32760259  0.55712295  0.59415002    -0.20600
C1229       C  0.31423173  0.56551054  0.63026324    -0.08700
C1230       C  0.32332609  0.55299814  0.66679734     0.30200
F1231       F  0.31096950  0.56046709  0.70244524    -0.19200
H1232       H  0.35195906  0.52277262  0.69504394     0.18600
H1233       H  0.32104486  0.56639016  0.56562976     0.18600
F1234       F  0.35857956  0.02779288  0.55568016    -0.19200
C1235       C  0.18065899  0.55190701  0.66323601    -0.20600
C1236       C  0.19129331  0.56296035  0.62665270    -0.08700
C1237       C  0.18025278  0.55201069  0.59009271     0.30200
C1238       C  0.15853580  0.53107297  0.59037949    -0.20600
C1239       C  0.14770804  0.52039540  0.62686563    -0.08700
C1240       C  0.15911041  0.53067890  0.66340926     0.30200
F1241       F  0.14892723  0.52078484  0.69920978    -0.19200
H1242       H  0.18886874  0.55981779  0.69176353     0.18600
H1243       H  0.14230497  0.02740864  0.56115083     0.18600
F1244       F  0.19024512  0.56151170  0.55395237    -0.19200
C1245       C  0.15977978  0.72179109  0.65535881    -0.20600
C1246       C  0.14730398  0.72939490  0.61836336    -0.08700
C1247       C  0.15666784  0.71551775  0.58299025     0.30200
C1248       C  0.17797826  0.69424940  0.58484120    -0.20600
C1249       C  0.19031038  0.68644690  0.62191329    -0.08700
C1250       C  0.18105121  0.70054106  0.65727893     0.30200
F1251       F  0.19263504  0.69408382  0.69373495    -0.24400
H1252       H  0.15290989  0.73224576  0.68296353     0.18600
H1253       H  0.18486844  0.68392969  0.55713757     0.18600
F1254       F  0.14592575  0.72302013  0.54650580    -0.19200
C1255       C  0.35122838  0.71394012  0.58937355    -0.20600
C1256       C  0.35718664  0.72958022  0.62479046    -0.08700
C1257       C  0.34124972  0.72320600  0.65990278     0.30200
C1258       C  0.31971275  0.70211065  0.65935256    -0.20600
C1259       C  0.31358688  0.68668417  0.62402405    -0.08700
C1260       C  0.32971826  0.69259641  0.58891252     0.30200
F1261       F  0.32508694  0.67755224  0.55433193    -0.19200
H1262       H  0.36307903  0.71839277  0.56187567     0.18600
H1263       H  0.30781570  0.69782708  0.68686589     0.18600
F1264       F  0.34681102  0.73669142  0.69528697    -0.19200
N1265       N  0.87874434  0.41915488  0.75260388    -0.35900
N1266       N  0.89218881  0.37673314  0.68988691    -0.56500
N1267       N  0.87159678  0.33157861  0.74635735    -0.35900
N1268       N  0.85811462  0.37378875  0.80906818    -0.56500
C1269       C  0.88556062  0.43736614  0.72172968     0.27700
C1270       C  0.86804697  0.43553462  0.78320886     0.27700
C1271       C  0.88202577  0.31522161  0.71546864     0.27600
C1272       C  0.86523051  0.31334473  0.77746577     0.27600
C1273       C  0.89541235  0.40082172  0.66713350     0.36300
C1274       C  0.89234853  0.35395702  0.66423327     0.36300
C1275       C  0.85721691  0.39674019  0.83434868     0.36300
C1276       C  0.85521511  0.34978529  0.83209699     0.36300
C1277       C  0.88067749  0.46562939  0.73429656    -0.21200
C1278       C  0.86824187  0.46434995  0.77146038    -0.21200
C1279       C  0.88226140  0.28650603  0.72741193    -0.21200
C1280       C  0.86995933  0.28517609  0.76467863    -0.21200
C1281       C  0.89773007  0.39319613  0.62681568    -0.22300
C1282       C  0.89569878  0.36362149  0.62499421    -0.22300
C1283       C  0.85360256  0.38729381  0.87366443    -0.22300
C1284       C  0.85237479  0.35765584  0.87226776    -0.22300
C1285       C  0.89409186  0.42970143  0.68152672    -0.17600
C1286       C  0.86004374  0.42610031  0.82273342    -0.17600
C1287       C  0.85706961  0.32084709  0.81794137    -0.17600
C1288       C  0.88942015  0.32455759  0.67557683    -0.17600
H1289       H  0.88511370  0.48560742  0.71856426     0.15300
H1290       H  0.86065793  0.48301776  0.78802456     0.15300
H1291       H  0.89012381  0.26795723  0.71089254     0.15300
H1292       H  0.86515430  0.26524973  0.78021146     0.15300
H1293       H  0.89943937  0.40739546  0.60101739     0.13600
H1294       H  0.89583110  0.35087346  0.59763503     0.13600
H1295       H  0.85287798  0.40024807  0.90082401     0.13600
H1296       H  0.85078827  0.34363822  0.89826513     0.13600
H1297       H  0.88302854  0.39724146  0.75397924     0.26800
H1298       H  0.86710793  0.35345089  0.74497781     0.26800
N1299       N  0.62921440  0.41693724  0.74632230    -0.35900
N1300       N  0.60943194  0.37274995  0.68817673    -0.56500
N1301       N  0.62191140  0.32919558  0.75031343    -0.35900
N1302       N  0.64175787  0.37360990  0.80837005    -0.56500
C1303       C  0.61934646  0.43390983  0.71581255     0.27700
C1304       C  0.63569709  0.43463573  0.77793632     0.27700
C1305       C  0.61567704  0.31148395  0.71858493     0.27600
C1306       C  0.63202582  0.31235449  0.78085494     0.27600
C1307       C  0.60934473  0.39596750  0.66325210     0.36300
C1308       C  0.60662953  0.34891951  0.66468882     0.36300
C1309       C  0.64403115  0.39741792  0.83197823     0.36300
C1310       C  0.64151970  0.35047138  0.83334100     0.36300
C1311       C  0.61950131  0.46247800  0.72862515    -0.21200
C1312       C  0.63160943  0.46305223  0.76596579    -0.21200
C1313       C  0.62030816  0.28305866  0.73056595    -0.21200
C1314       C  0.63216533  0.28379287  0.76810770    -0.21200
C1315       C  0.60642982  0.38684551  0.62369413    -0.22300
C1316       C  0.60471494  0.35717466  0.62457154    -0.22300
C1317       C  0.64527242  0.38927267  0.87215151    -0.22300
C1318       C  0.64361943  0.35964548  0.87300563    -0.22300
C1319       C  0.61226582  0.42526201  0.67554636    -0.17600
C1320       C  0.64308280  0.42648543  0.81833091    -0.17600
C1321       C  0.63926692  0.32117386  0.82103108    -0.17600
C1322       C  0.60770060  0.31975291  0.67830674    -0.17600
H1323       H  0.61209993  0.48143473  0.71268185     0.15300
H1324       H  0.63665171  0.48261387  0.78225361     0.15300
H1325       H  0.61598933  0.26326990  0.71436076     0.15300
H1326       H  0.63970721  0.26494257  0.78415709     0.15300
H1327       H  0.60642971  0.40003687  0.59677450     0.13600
H1328       H  0.60341341  0.34333649  0.59831755     0.13600
H1329       H  0.64610545  0.40316260  0.89839203     0.13600
H1330       H  0.64311289  0.34652280  0.89998172     0.13600
H1331       H  0.63321338  0.39498762  0.74457923     0.26800
H1332       H  0.61754467  0.35107897  0.75214248     0.26800
N1333       N  0.54195728  0.24785048  0.49829889    -0.35900
N1334       N  0.99987124  0.26950347  0.55745295    -0.56500
N1335       N  0.95694574  0.25585279  0.49501942    -0.35900
N1336       N  0.00178824  0.23596123  0.43773079    -0.56500
C1337       C  0.55912996  0.25733060  0.52891016     0.27700
C1338       C  0.55951620  0.24028966  0.46710217     0.27700
C1339       C  0.93898470  0.26185073  0.52653790     0.27600
C1340       C  0.94037172  0.24562956  0.46420061     0.27600
C1341       C  0.52130274  0.26958838  0.58055793     0.36300
C1342       C  0.97591725  0.27257763  0.58059031     0.36300
C1343       C  0.52218539  0.23090947  0.41318007     0.36300
C1344       C  0.97885323  0.23533186  0.41244983     0.36300
C1345       C  0.58771976  0.25585247  0.51656378    -0.21200
C1346       C  0.58802062  0.24334263  0.47945203    -0.21200
C1347       C  0.91068184  0.25686618  0.51422754    -0.21200
C1348       C  0.91169856  0.24531209  0.47648797    -0.21200
C1349       C  0.51213706  0.27399361  0.61982908    -0.22300
C1350       C  0.98398975  0.27593037  0.62059987    -0.22300
C1351       C  0.51388723  0.22812602  0.37319397    -0.22300
C1352       C  0.98832751  0.23152135  0.37316091    -0.22300
C1353       C  0.55051658  0.26546607  0.56880304    -0.17600
C1354       C  0.55128831  0.23283320  0.42672282    -0.17600
C1355       C  0.94950388  0.23828100  0.42418915    -0.17600
C1356       C  0.94685687  0.27017263  0.56684788    -0.17600
H1357       H  0.60683014  0.26282298  0.53258029     0.15300
H1358       H  0.60751916  0.23753128  0.46351088     0.15300
H1359       H  0.89079039  0.26083885  0.53034086     0.15300
H1360       H  0.89293572  0.23790086  0.45997499     0.15300
H1361       H  0.52512245  0.27463366  0.64689310     0.13600
H1362       H  0.97006720  0.27783465  0.64667443     0.13600
H1363       H  0.52771673  0.22672644  0.34694847     0.13600
H1364       H  0.97543198  0.23087440  0.34600057     0.13600
H1365       H  0.51982664  0.24518337  0.49944746     0.26800
H1366       H  0.97879940  0.26044531  0.49344864     0.26800
C1367       C  0.87662518  0.25387560  0.62163783     0.03800
C1368       C  0.87103094  0.28041840  0.64027185    -0.12300
C1369       C  0.89288914  0.30141371  0.64396517     0.01300
C1370       C  0.91826879  0.29835908  0.62039294    -0.10900
C1371       C  0.92272497  0.27295803  0.59729741     0.03800
C1372       C  0.90313961  0.24983190  0.60205912    -0.10300
H1373       H  0.85046586  0.28379237  0.65526303     0.09400
H1374       H  0.93447277  0.31534120  0.62034470     0.06900
H1375       H  0.90764127  0.22922877  0.58772757     0.06800
C1376       C  0.62063804  0.24942116  0.62246143     0.03800
C1377       C  0.59418121  0.24510613  0.60318053    -0.12300
C1378       C  0.57411828  0.26783390  0.60003561     0.01300
C1379       C  0.57840985  0.29286564  0.62411432    -0.10900
C1380       C  0.60383561  0.29594209  0.64757711     0.03800
C1381       C  0.62592042  0.27544591  0.64259650    -0.10300
H1382       H  0.59026723  0.22484491  0.58753613     0.09400
H1383       H  0.56234370  0.30986562  0.62434433     0.06900
H1384       H  0.64661171  0.27870844  0.65730724     0.06800
N1385       N  0.95676780  0.50370945  0.50208367    -0.35900
N1386       N  0.49790070  0.01638632  0.44073236    -0.56500
N1387       N  0.54581243  0.49781540  0.49829144    -0.35900
N1388       N  0.50296283  0.48488866  0.56115385    -0.56500
C1389       C  0.93700910  0.00991151  0.47134858     0.27700
C1390       C  0.94033452  0.49301978  0.53274313     0.27700
C1391       C  0.55947705  0.00997853  0.46975094     0.27600
C1392       C  0.56375403  0.49232848  0.52988202     0.27600
C1393       C  0.97453765  0.01739819  0.41750088     0.36300
C1394       C  0.52136371  0.01780939  0.41645417     0.36300
C1395       C  0.97871966  0.48467788  0.58511165     0.36300
C1396       C  0.52693674  0.48161318  0.58400874     0.36300
C1397       C  0.90872727  0.01150051  0.48495666    -0.21200
C1398       C  0.91171799  0.49232318  0.52044135    -0.21200
C1399       C  0.58816218  0.00756148  0.48146903    -0.21200
C1400       C  0.59189843  0.49865903  0.51801008    -0.21200
C1401       C  0.98305026  0.01938440  0.37754846    -0.22300
C1402       C  0.51265872  0.01913541  0.37650089    -0.22300
C1403       C  0.98794497  0.48232943  0.62468099    -0.22300
C1404       C  0.51908772  0.47875795  0.62419269    -0.22300
C1405       C  0.94547339  0.01664581  0.43096186    -0.17600
C1406       C  0.94941636  0.48638709  0.57295954    -0.17600
C1407       C  0.55589016  0.48324501  0.56985174    -0.17600
C1408       C  0.55055369  0.01656303  0.42939453    -0.17600
H1409       H  0.88999725  0.01975761  0.46931072     0.15300
H1410       H  0.89308748  0.48448983  0.53690119     0.15300
H1411       H  0.60734176  0.01332187  0.46468139     0.15300
H1412       H  0.61183456  0.49502454  0.53395061     0.15300
H1413       H  0.96937534  0.02025698  0.35114527     0.13600
H1414       H  0.52617278  0.01955599  0.34987020     0.13600
H1415       H  0.97483685  0.48210393  0.65170469     0.13600
H1416       H  0.53317910  0.47683653  0.65004382     0.13600
H1417       H  0.97851557  0.50867556  0.50383362     0.26800
H1418       H  0.52431065  0.49174563  0.49617624     0.26800
C1419       C  0.62145512  0.00004783  0.62814083     0.03800
C1420       C  0.63140693  0.47008561  0.64231717    -0.12300
C1421       C  0.60934738  0.44909069  0.64478968     0.01300
C1422       C  0.58405146  0.45307943  0.62139789    -0.10900
C1423       C  0.57988660  0.47924222  0.59993965     0.03800
C1424       C  0.59578124  0.00483286  0.60723928    -0.10300
H1425       H  0.65188886  0.46637588  0.65729976     0.09400
H1426       H  0.56763362  0.43631821  0.62039155     0.06900
H1427       H  0.59274140  0.02523180  0.59167349     0.06800
C1428       C  0.87583060  0.99919361  0.62977800     0.03800
C1429       C  0.87447420  0.47323984  0.64632476    -0.12300
C1430       C  0.89744512  0.45382271  0.65144216     0.01300
C1431       C  0.92290608  0.45801467  0.62838444    -0.10900
C1432       C  0.92606183  0.48308912  0.60424063     0.03800
C1433       C  0.90216864  0.00426760  0.61058776    -0.10300
H1434       H  0.85383635  0.46882591  0.66065804     0.09400
H1435       H  0.93977738  0.44181033  0.62879697     0.06900
H1436       H  0.90608215  0.02512534  0.59658040     0.06800
N1437       N  0.79353391  0.24641269  0.99743885    -0.35900
N1438       N  0.75009682  0.23220767  0.05935202    -0.56500
N1439       N  0.70598932  0.25391085  0.00298446    -0.35900
N1440       N  0.74944029  0.26799742  0.94088725    -0.56500
C1441       C  0.81120136  0.23924847  0.02864642     0.27700
C1442       C  0.81049026  0.25684370  0.96712398     0.27700
C1443       C  0.68902729  0.24321344  0.03310032     0.27600
C1444       C  0.68832148  0.26100239  0.97173153     0.27600
C1445       C  0.77393418  0.22854963  0.08237218     0.36300
C1446       C  0.72701936  0.23108883  0.08445750     0.36300
C1447       C  0.77243484  0.26791017  0.91556053     0.36300
C1448       C  0.72555382  0.27043628  0.91761354     0.36300
C1449       C  0.83967055  0.24375308  0.01660857    -0.21200
C1450       C  0.83910201  0.25626751  0.97949442    -0.21200
C1451       C  0.66042307  0.24380631  0.02058545    -0.21200
C1452       C  0.65985828  0.25658679  0.98368947    -0.21200
C1453       C  0.76584373  0.22496248  0.12235663    -0.22300
C1454       C  0.73623701  0.22659167  0.12365495    -0.22300
C1455       C  0.76312018  0.27056758  0.87610308    -0.22300
C1456       C  0.73355586  0.27218873  0.87737501    -0.22300
C1457       C  0.80296435  0.23038006  0.06856888    -0.17600
C1458       C  0.80169722  0.26469521  0.92725628    -0.17600
C1459       C  0.69653012  0.26879822  0.93142071    -0.17600
C1460       C  0.69778206  0.23451662  0.07267614    -0.17600
H1461       H  0.85937034  0.23878825  0.03253701     0.15300
H1462       H  0.85810711  0.26349950  0.96331652     0.15300
H1463       H  0.64141916  0.23604947  0.03627029     0.15300
H1464       H  0.64021373  0.26133051  0.96746828     0.15300
H1465       H  0.77974264  0.22257606  0.14832516     0.13600
H1466       H  0.72318256  0.22550923  0.15069115     0.13600
H1467       H  0.77607769  0.27020381  0.84894413     0.13600
H1468       H  0.71961605  0.27313437  0.85126751     0.13600
H1469       H  0.77159038  0.24235378  0.99569511     0.26800
H1470       H  0.72797795  0.25772838  0.00460184     0.26800
C1471       C  0.87186236  0.25017072  0.87245620     0.03800
C1472       C  0.84555564  0.24545083  0.89222752    -0.12300
C1473       C  0.82510175  0.26770458  0.89585278     0.01300
C1474       C  0.82857152  0.29277748  0.87176562    -0.10900
C1475       C  0.85384122  0.29658062  0.84812491     0.03800
C1476       C  0.87643617  0.27650183  0.85254108    -0.10300
H1477       H  0.84190404  0.22512833  0.90778114     0.09400
H1478       H  0.81198515  0.30927460  0.87173823     0.06900
H1479       H  0.89704934  0.28058801  0.83799104     0.06800
C1480       C  0.62746861  0.25049912  0.87624661     0.03800
C1481       C  0.62185069  0.27615320  0.85553626    -0.12300
C1482       C  0.64320153  0.29772079  0.85205442     0.01300
C1483       C  0.66823840  0.29559725  0.87647800    -0.10900
C1484       C  0.67274758  0.27075903  0.90061614     0.03800
C1485       C  0.65360796  0.24728187  0.89657866    -0.10300
H1486       H  0.60147337  0.27853335  0.83975679     0.09400
H1487       H  0.68409071  0.31291285  0.87654252     0.06900
H1488       H  0.65791482  0.22719104  0.91232908     0.06800
N1489       N  0.87509633  0.08108006  0.25263434    -0.35900
N1490       N  0.86005507  0.12250327  0.18979402    -0.56500
N1491       N  0.87864527  0.16853080  0.24629049    -0.35900
N1492       N  0.89332018  0.12716738  0.30943048    -0.56500
C1493       C  0.86862183  0.06245751  0.22206975     0.27700
C1494       C  0.88506269  0.06511017  0.28403133     0.27700
C1495       C  0.86730418  0.18431347  0.21555873     0.27600
C1496       C  0.88497992  0.18720874  0.27688593     0.27600
C1497       C  0.85805392  0.09828616  0.16705429     0.36300
C1498       C  0.85870820  0.14520168  0.16422752     0.36300
C1499       C  0.89412198  0.10444214  0.33511741     0.36300
C1500       C  0.89584135  0.15148218  0.33200281     0.36300
C1501       C  0.87319492  0.03443171  0.23557966    -0.21200
C1502       C  0.88512790  0.03617077  0.27293969    -0.21200
C1503       C  0.86638197  0.21310138  0.22713341    -0.21200
C1504       C  0.87942063  0.21510910  0.26374378    -0.21200
C1505       C  0.85548205  0.10574710  0.12672079    -0.22300
C1506       C  0.85586971  0.13541045  0.12495893    -0.22300
C1507       C  0.89733772  0.11434769  0.37427958    -0.22300
C1508       C  0.89844990  0.14403869  0.37233353    -0.22300
C1509       C  0.85987652  0.06954246  0.18177877    -0.17600
C1510       C  0.89148195  0.07491105  0.32392373    -0.17600
C1511       C  0.89369861  0.18029115  0.31728390    -0.17600
C1512       C  0.86025299  0.17462056  0.17574720    -0.17600
H1513       H  0.86808009  0.01427297  0.22091940     0.15300
H1514       H  0.89199219  0.01767752  0.29040587     0.15300
H1515       H  0.85788043  0.23127606  0.21052751     0.15300
H1516       H  0.88425968  0.23529824  0.27850365     0.15300
H1517       H  0.85447740  0.09143377  0.10093706     0.13600
H1518       H  0.85493834  0.14818352  0.09768493     0.13600
H1519       H  0.89800930  0.10163511  0.40162550     0.13600
H1520       H  0.89978246  0.15839972  0.39803439     0.13600
H1521       H  0.87054674  0.10291579  0.25355763     0.26800
H1522       H  0.88404085  0.14688363  0.24495401     0.26800
N1523       N  0.70619369  0.49921681  0.99934744    -0.35900
N1524       N  0.74766377  0.01436793  0.06422947    -0.56500
N1525       N  0.79427216  0.49487144  0.00196297    -0.35900
N1526       N  0.74982792  0.48024607  0.94078410    -0.56500
C1527       C  0.68663723  0.00274725  0.03591640     0.27700
C1528       C  0.68912940  0.48860025  0.96931461     0.27700
C1529       C  0.80930384  0.00696358  0.03595053     0.27600
C1530       C  0.81114890  0.48527609  0.97127141     0.27600
C1531       C  0.72393968  0.01693818  0.08791683     0.36300
C1532       C  0.77103229  0.01805191  0.08822790     0.36300
C1533       C  0.72663686  0.48072241  0.91596075     0.36300
C1534       C  0.77353673  0.47939807  0.91691467     0.36300
C1535       C  0.65818530  0.99850713  0.02382244    -0.21200
C1536       C  0.66085696  0.48717003  0.98303401    -0.21200
C1537       C  0.83789621  0.00219754  0.02497658    -0.21200
C1538       C  0.83967118  0.48500705  0.98408906    -0.21200
C1539       C  0.73232383  0.02247159  0.12728168    -0.22300
C1540       C  0.76201088  0.02305596  0.12752414    -0.22300
C1541       C  0.73564506  0.47978766  0.87614580    -0.22300
C1542       C  0.76530587  0.47895038  0.87673919    -0.22300
C1543       C  0.69487683  0.01284287  0.07520363    -0.17600
C1544       C  0.69746540  0.48230996  0.92872139    -0.17600
C1545       C  0.80255408  0.47979779  0.93057608    -0.17600
C1546       C  0.80033125  0.01502528  0.07592352    -0.17600
H1547       H  0.63852224  0.00426590  0.03937517     0.15300
H1548       H  0.64188648  0.47958831  0.96711777     0.15300
H1549       H  0.85726978  0.00676181  0.04191745     0.15300
H1550       H  0.85861842  0.47805056  0.96764211     0.15300
H1551       H  0.71863350  0.02468981  0.15355962     0.13600
H1552       H  0.77525834  0.02579163  0.15409472     0.13600
H1553       H  0.72236171  0.48049587  0.84935090     0.13600
H1554       H  0.77917082  0.47887984  0.85044703     0.13600
H1555       H  0.72756672  0.50528957  0.99654591     0.26800
H1556       H  0.77228147  0.49757561  0.00069516     0.26800
C1557       C  0.62543155  0.99581060  0.88104427     0.03800
C1558       C  0.65180870  0.99989598  0.90079176    -0.12300
C1559       C  0.67370498  0.47897928  0.89807359     0.01300
C1560       C  0.67091359  0.45428569  0.87298077    -0.10900
C1561       C  0.64579021  0.45032246  0.84917658     0.03800
C1562       C  0.62284855  0.46995070  0.85374017    -0.10300
H1563       H  0.65553343  0.01977131  0.91744287     0.09400
H1564       H  0.68792086  0.43822705  0.87223612     0.06900
H1565       H  0.60259930  0.46608890  0.83815118     0.06800
C1566       C  0.87296683  0.99618899  0.88091936     0.03800
C1567       C  0.87850266  0.46957186  0.85905883    -0.12300
C1568       C  0.85627065  0.44915476  0.85404981     0.01300
C1569       C  0.83041819  0.45252083  0.87627385    -0.10900
C1570       C  0.82633579  0.47746935  0.90017483     0.03800
C1571       C  0.84672386  0.00141504  0.90039155    -0.10300
H1572       H  0.89914945  0.46625232  0.84422820     0.09400
H1573       H  0.81377989  0.43597827  0.87510138     0.06900
H1574       H  0.84357564  0.02177278  0.91607615     0.06800
N1575       N  0.61988642  0.08007416  0.24811384    -0.35900
N1576       N  0.63830511  0.12391483  0.18885396    -0.56500
N1577       N  0.62680948  0.16783336  0.25084821    -0.35900
N1578       N  0.60817367  0.12401389  0.30991717    -0.56500
C1579       C  0.62980790  0.06309740  0.21756770     0.27700
C1580       C  0.61491585  0.06261929  0.28045311     0.27700
C1581       C  0.63425090  0.18514681  0.21930541     0.27600
C1582       C  0.61806359  0.18523815  0.28163610     0.27600
C1583       C  0.63805799  0.10063596  0.16413808     0.36300
C1584       C  0.64114356  0.14752902  0.16513412     0.36300
C1585       C  0.60511930  0.10040634  0.33370310     0.36300
C1586       C  0.60686619  0.14752080  0.33426791     0.36300
C1587       C  0.63099557  0.03470649  0.23081373    -0.21200
C1588       C  0.62008664  0.03418600  0.26887526    -0.21200
C1589       C  0.63183335  0.21375579  0.23145896    -0.21200
C1590       C  0.62001881  0.21382939  0.26906311    -0.21200
C1591       C  0.64070619  0.10946642  0.12441564    -0.22300
C1592       C  0.64269059  0.13914455  0.12503083    -0.22300
C1593       C  0.60191413  0.10906712  0.37351247    -0.22300
C1594       C  0.60296745  0.13876722  0.37384064    -0.22300
C1595       C  0.63596258  0.07152418  0.17700551    -0.17600
C1596       C  0.60704560  0.07114440  0.32064320    -0.17600
C1597       C  0.60991103  0.17674797  0.32163648    -0.17600
C1598       C  0.64111176  0.17659758  0.17882696    -0.17600
H1599       H  0.63836231  0.01577674  0.21465801     0.15300
H1600       H  0.61629411  0.01447509  0.28539726     0.15300
H1601       H  0.63774060  0.23304596  0.21505341     0.15300
H1602       H  0.61395745  0.23325285  0.28509347     0.15300
H1603       H  0.64079542  0.09602335  0.09769160     0.13600
H1604       H  0.64436260  0.15292586  0.09877860     0.13600
H1605       H  0.60011679  0.09552690  0.39997450     0.13600
H1606       H  0.60195687  0.15222478  0.40050062     0.13600
H1607       H  0.61439612  0.10166815  0.24578763     0.26800
H1608       H  0.62896219  0.14565362  0.25198046     0.26800
C1609       C  0.62930062  0.49669688  0.12871011     0.03800
C1610       C  0.61793957  0.02638741  0.14402095    -0.12300
C1611       C  0.63970821  0.04757248  0.14687853     0.01300
C1612       C  0.66572795  0.04347606  0.12516838    -0.10900
C1613       C  0.67094594  0.01684800  0.10538230     0.03800
C1614       C  0.65597490  0.49269406  0.10974695    -0.10300
H1615       H  0.59700726  0.03030180  0.15771551     0.09400
H1616       H  0.68176572  0.06059787  0.12404898     0.06900
H1617       H  0.66109471  0.47174877  0.09682462     0.06800
C1618       C  0.87367386  0.49801358  0.12710186     0.03800
C1619       C  0.84667440  0.49280384  0.10959284    -0.12300
C1620       C  0.82358461  0.01685152  0.10750658     0.01300
C1621       C  0.82908488  0.04229232  0.13001410    -0.10900
C1622       C  0.85491331  0.04501423  0.15262672     0.03800
C1623       C  0.87614430  0.02354280  0.14817666    -0.10300
H1624       H  0.84205536  0.47167297  0.09681399     0.09400
H1625       H  0.81364894  0.05986868  0.12954686     0.06900
H1626       H  0.89735096  0.02659303  0.16147773     0.06800
C1627       C  0.87292698  0.24503553  0.12286480     0.03800
C1628       C  0.84644133  0.24978347  0.10417964    -0.12300
C1629       C  0.82682069  0.22684923  0.09890176     0.01300
C1630       C  0.83121387  0.20100819  0.12106363    -0.10900
C1631       C  0.85670791  0.19759218  0.14420840     0.03800
C1632       C  0.87862377  0.21846992  0.14076574    -0.10300
H1633       H  0.84230635  0.27061025  0.09029113     0.09400
H1634       H  0.81495670  0.18407835  0.12069528     0.06900
H1635       H  0.89918924  0.21520902  0.15577978     0.06800
C1636       C  0.62681544  0.24698118  0.12549369     0.03800
C1637       C  0.65353483  0.25260897  0.10755213    -0.12300
C1638       C  0.67417516  0.23056017  0.10350437     0.01300
C1639       C  0.67023542  0.20468956  0.12583077    -0.10900
C1640       C  0.64451875  0.20035140  0.14827949     0.03800
C1641       C  0.62191198  0.22027791  0.14392965    -0.10300
H1642       H  0.65721380  0.27339325  0.09321307     0.09400
H1643       H  0.68679688  0.18817049  0.12567807     0.06900
H1644       H  0.60120010  0.21601039  0.15815460     0.06800
C1645       C  0.62457393  0.50447485  0.37466748     0.03800
C1646       C  0.62585841  0.02723302  0.35661569    -0.12300
C1647       C  0.60358278  0.04753236  0.35157343     0.01300
C1648       C  0.57797504  0.04401414  0.37443720    -0.10900
C1649       C  0.57393799  0.01892926  0.39819068     0.03800
C1650       C  0.59851000  0.49837937  0.39410915    -0.10300
H1651       H  0.64665167  0.03085018  0.34228633     0.09400
H1652       H  0.56150820  0.06063032  0.37397588     0.06900
H1653       H  0.59598133  0.47800339  0.40996880     0.06800
C1654       C  0.87578295  0.50499414  0.37562716     0.03800
C1655       C  0.87021270  0.03228055  0.35925024    -0.12300
C1656       C  0.89336399  0.05192992  0.35574489     0.01300
C1657       C  0.91875479  0.04698157  0.37838520    -0.10900
C1658       C  0.92161104  0.02122409  0.40104897     0.03800
C1659       C  0.90205848  0.49991303  0.39531699    -0.10300
H1660       H  0.85009737  0.03653743  0.34358492     0.09400
H1661       H  0.93612477  0.06276923  0.37804567     0.06900
H1662       H  0.90585923  0.47911920  0.40939804     0.06800
C1663       C  0.87920743  0.25185708  0.37002239     0.03800
C1664       C  0.87447469  0.22524765  0.35096755    -0.12300
C1665       C  0.89703288  0.20504306  0.34679710     0.01300
C1666       C  0.92251378  0.20934698  0.36975317    -0.10900
C1667       C  0.92615730  0.23488880  0.39292471     0.03800
C1668       C  0.90552845  0.25698883  0.38931223    -0.10300
H1669       H  0.85375985  0.22113073  0.33675657     0.09400
H1670       H  0.93910136  0.19285333  0.36998516     0.06900
H1671       H  0.90893436  0.27744240  0.40470562     0.06800
C1672       C  0.62266450  0.24799157  0.37507608     0.03800
C1673       C  0.62814027  0.22125727  0.35675461    -0.12300
C1674       C  0.60599058  0.20059159  0.35214215     0.01300
C1675       C  0.57997713  0.20439593  0.37398965    -0.10900
C1676       C  0.57537444  0.23004272  0.39636512     0.03800
C1677       C  0.59557200  0.25278546  0.39266733    -0.10300
H1678       H  0.64900571  0.21747208  0.34279049     0.09400
H1679       H  0.56354055  0.18763735  0.37361504     0.06900
H1680       H  0.59113258  0.27346730  0.40681377     0.06800
O1681       O  0.97030063  0.39895578  0.09230325    -0.71100
O1682       O  0.52725705  0.34340688  0.09168802    -0.71300
O1683       O  0.97253286  0.34124355  0.09151586    -0.71200
O1684       O  0.52922773  0.40099589  0.09463081    -0.71200
O1685       O  0.52860799  0.40031353  0.16001279    -0.71100
O1686       O  0.97058007  0.34222338  0.15686039    -0.71200
O1687       O  0.52777793  0.34261234  0.15708112    -0.71100
O1688       O  0.97129343  0.40004869  0.15769828    -0.71300
V1689       V  0.00028366  0.37123002  0.09354560     1.35200
V1690       V  0.99983724  0.37091717  0.15642175     1.35200
C1691       C  0.96082985  0.40924156  0.12501576     0.78100
C1692       C  0.53743583  0.33320918  0.12395256     0.78200
C1693       C  0.96170364  0.33181992  0.12386890     0.78100
C1694       C  0.53939462  0.40999483  0.12767765     0.78000
O1695       O  0.77822962  0.40567088  0.33881227    -0.71100
O1696       O  0.72101996  0.34665565  0.34018624    -0.71300
O1697       O  0.72050152  0.40479385  0.33920244    -0.71200
O1698       O  0.77902319  0.34761048  0.33995858    -0.71200
O1699       O  0.77943058  0.34843858  0.40533031    -0.71100
O1700       O  0.72030085  0.40492778  0.40459387    -0.71200
O1701       O  0.72133227  0.34689774  0.40557619    -0.71100
O1702       O  0.77793951  0.40630485  0.40422626    -0.71300
V1703       V  0.74967155  0.37612800  0.34079346     1.35200
V1704       V  0.74973314  0.37660150  0.40365698     1.35200
C1705       C  0.78768833  0.41619186  0.37139414     0.78100
C1706       C  0.71137081  0.33669218  0.37304724     0.78200
C1707       C  0.71070837  0.41493695  0.37182961     0.78100
C1708       C  0.78942901  0.33842028  0.37275133     0.78000
O1709       O  0.72076581  0.09643328  0.59426657    -0.71100
O1710       O  0.77992413  0.15298073  0.59227954    -0.71300
O1711       O  0.77840583  0.09512696  0.59493398    -0.71200
O1712       O  0.72175756  0.15420221  0.59216845    -0.71200
O1713       O  0.72032548  0.15405280  0.65752352    -0.71100
O1714       O  0.77961256  0.09810132  0.66025165    -0.71200
O1715       O  0.77838583  0.15587650  0.65752279    -0.71100
O1716       O  0.72169013  0.09628658  0.65964630    -0.71300
V1717       V  0.75023798  0.12475933  0.59466485     1.35200
V1718       V  0.75001827  0.12608979  0.65750085     1.35200
C1719       C  0.71131722  0.08643863  0.62712017     0.78100
C1720       C  0.78925260  0.16418749  0.62446032     0.78200
C1721       C  0.78879559  0.08675386  0.62812806     0.78100
C1722       C  0.71076349  0.16362374  0.62453437     0.78000
O1723       O  0.52850075  0.09474512  0.85096257    -0.71100
O1724       O  0.97079857  0.15233212  0.84420002    -0.71300
O1725       O  0.52888052  0.15256851  0.84954794    -0.71200
O1726       O  0.97076010  0.09439148  0.84512852    -0.71200
O1727       O  0.97094969  0.09463313  0.91052587    -0.71100
O1728       O  0.52841934  0.15344231  0.91492032    -0.71200
O1729       O  0.97021834  0.15252407  0.90959351    -0.71100
O1730       O  0.52798839  0.09538951  0.91633945    -0.71300
V1731       V  0.99969969  0.12337356  0.84599975     1.35200
V1732       V  0.99956498  0.12394328  0.90886383     1.35200
C1733       C  0.53810569  0.08510409  0.88396951     0.78100
C1734       C  0.96047453  0.16219736  0.87670996     0.78200
C1735       C  0.53878613  0.16273134  0.88207312     0.78100
C1736       C  0.96104571  0.08451839  0.87794314     0.78000
C1737       C  0.67426063  0.30725121  0.40950545    -0.20600
C1738       C  0.68883462  0.31389058  0.37348341    -0.08700
C1739       C  0.68143100  0.29871546  0.33814001     0.30200
C1740       C  0.65986448  0.27749189  0.33900144    -0.20600
C1741       C  0.64517332  0.27095466  0.37493364    -0.08700
C1742       C  0.65257674  0.28610652  0.41030227     0.30200
F1743       F  0.63946564  0.28007365  0.44589442    -0.19200
H1744       H  0.67955271  0.31853694  0.43717374     0.18600
H1745       H  0.65450164  0.26622853  0.31135189     0.18600
F1746       F  0.69520582  0.30405734  0.30276377    -0.19200
C1747       C  0.82303564  0.30582469  0.33578379    -0.20600
C1748       C  0.81264772  0.31650154  0.37268248    -0.08700
C1749       C  0.82467607  0.30597245  0.40880985     0.30200
C1750       C  0.84645647  0.28506888  0.40767155    -0.20600
C1751       C  0.85640127  0.27415395  0.37071508    -0.08700
C1752       C  0.84461889  0.28485004  0.33473028     0.30200
F1753       F  0.85439838  0.27563168  0.29844731    -0.19200
H1754       H  0.81444523  0.31370357  0.30750966     0.18600
H1755       H  0.85535036  0.27710080  0.43572180     0.18600
F1756       F  0.81540557  0.31566249  0.44521735    -0.19200
C1757       C  0.83797847  0.47671569  0.33840370    -0.20600
C1758       C  0.85291018  0.48246381  0.37447558    -0.08700
C1759       C  0.84572435  0.46653561  0.40919085     0.30200
C1760       C  0.82445904  0.44522603  0.40766896    -0.20600
C1761       C  0.80980680  0.43920921  0.37166440    -0.08700
C1762       C  0.81658363  0.45529654  0.33689659     0.30200
F1763       F  0.80241748  0.45064428  0.30165562    -0.19200
H1764       H  0.84307776  0.48857248  0.31116551     0.18600
H1765       H  0.81956475  0.43327553  0.43492422     0.18600
F1766       F  0.85124207  0.97937361  0.44952377    -0.19200
C1767       C  0.67927307  0.44950708  0.40895612    -0.20600
C1768       C  0.68898337  0.43822949  0.37199899    -0.08700
C1769       C  0.67817594  0.44988972  0.33583545     0.30200
C1770       C  0.65772336  0.47200298  0.33695874    -0.20600
C1771       C  0.64766831  0.48270400  0.37393896    -0.08700
C1772       C  0.65880064  0.47155001  0.40997250     0.30200
F1773       F  0.64075272  0.97266639  0.44710414    -0.19200
H1774       H  0.68751219  0.44126791  0.43723094     0.18600
H1775       H  0.64927682  0.48032193  0.30889107     0.18600
F1776       F  0.68709703  0.43989272  0.29941323    -0.19200
C1777       C  0.59569345  0.28173816  0.08827965    -0.20600
C1778       C  0.60397325  0.26905661  0.12488178    -0.08700
C1779       C  0.59044026  0.27770544  0.16076695     0.30200
C1780       C  0.56881478  0.29849629  0.15997930    -0.20600
C1781       C  0.56020410  0.31105515  0.12345614    -0.08700
C1782       C  0.57392974  0.30259610  0.08742115     0.30200
F1783       F  0.56664287  0.31458390  0.05151817    -0.19200
H1784       H  0.60596270  0.27532217  0.06032047     0.18600
H1785       H  0.55884730  0.30480474  0.18819634     0.18600
F1786       F  0.59855192  0.26665207  0.19680826    -0.19200
C1787       C  0.90810992  0.27593868  0.08685894    -0.20600
C1788       C  0.89504535  0.26767640  0.12311717    -0.08700
C1789       C  0.90383042  0.28039863  0.15945712     0.30200
C1790       C  0.92564125  0.30120521  0.15944877    -0.20600
C1791       C  0.93899915  0.30950909  0.12321499    -0.08700
C1792       C  0.93006295  0.29664044  0.08675476     0.30200
F1793       F  0.94258223  0.30377285  0.05107794    -0.19200
H1794       H  0.90159938  0.26599723  0.05871039     0.18600
H1795       H  0.93196334  0.31089999  0.18784969     0.18600
F1796       F  0.89104478  0.27305574  0.19481110    -0.19200
C1797       C  0.90147292  0.45966889  0.09125503    -0.20600
C1798       C  0.89597285  0.47519387  0.12685124    -0.08700
C1799       C  0.91179724  0.46863185  0.16179366     0.30200
C1800       C  0.93270031  0.44700277  0.16093329    -0.20600
C1801       C  0.93833717  0.43164952  0.12527380    -0.08700
C1802       C  0.92247018  0.43811363  0.09032522     0.30200
F1803       F  0.92694958  0.42348962  0.05536691    -0.19200
H1804       H  0.89165530  0.97321588  0.06246932     0.18600
H1805       H  0.94460017  0.44238319  0.18826699     0.18600
F1806       F  0.90669063  0.48258419  0.19704745    -0.19200
C1807       C  0.60023798  0.45912016  0.09345323    -0.20600
C1808       C  0.60771400  0.47309252  0.12949466    -0.08700
C1809       C  0.59361045  0.46516714  0.16540496     0.30200
C1810       C  0.57163508  0.44434267  0.16476700    -0.20600
C1811       C  0.56336679  0.43116243  0.12835423    -0.08700
C1812       C  0.57830020  0.43838844  0.09272855     0.30200
F1813       F  0.57175071  0.42555700  0.05705519    -0.19200
H1814       H  0.61091940  0.46474805  0.06549883     0.18600
H1815       H  0.56085316  0.43880888  0.19272864     0.18600
F1816       F  0.60121260  0.47732959  0.20109550    -0.19200
C1817       C  0.90787869  0.02723655  0.84361425    -0.20600
C1818       C  0.89580584  0.01849304  0.88045881    -0.08700
C1819       C  0.90545785  0.03136630  0.91637365     0.30200
C1820       C  0.92673599  0.05278168  0.91526221    -0.20600
C1821       C  0.93868767  0.06175896  0.87837871    -0.08700
C1822       C  0.92908735  0.04872009  0.84241566     0.30200
F1823       F  0.94012377  0.05657849  0.80608596    -0.19200
H1824       H  0.90062241  0.01765718  0.81560381     0.18600
H1825       H  0.93384011  0.06234212  0.94339110     0.18600
F1826       F  0.89315197  0.52281398  0.95150917    -0.19200
C1827       C  0.56852355  0.04931770  0.84760264    -0.20600
C1828       C  0.56045943  0.06228102  0.88418173    -0.08700
C1829       C  0.57398060  0.05319187  0.92003134     0.30200
C1830       C  0.59509199  0.03154844  0.91889764    -0.20600
C1831       C  0.60296652  0.01857235  0.88218070    -0.08700
C1832       C  0.58946326  0.02774558  0.84651423     0.30200
F1833       F  0.59699446  0.01648365  0.81028421    -0.19200
H1834       H  0.55862677  0.05590575  0.81951834     0.18600
H1835       H  0.60189986  0.52045456  0.94047350     0.18600
F1836       F  0.56706678  0.06527458  0.95606921    -0.19200
C1837       C  0.59507642  0.21770438  0.91507183    -0.20600
C1838       C  0.60557115  0.22734859  0.87773789    -0.08700
C1839       C  0.59463753  0.21520826  0.84212317     0.30200
C1840       C  0.57303533  0.19413343  0.84389905    -0.20600
C1841       C  0.56196299  0.18479399  0.88120557    -0.08700
C1842       C  0.57338736  0.19664760  0.91693946     0.30200
F1843       F  0.56355732  0.18815405  0.95364165    -0.19200
H1844       H  0.60333391  0.22688065  0.94282003     0.18600
H1845       H  0.56495439  0.18515322  0.81591646     0.18600
F1846       F  0.60517126  0.22337303  0.80567035    -0.19200
C1847       C  0.90131209  0.21373635  0.90984339    -0.20600
C1848       C  0.89465664  0.22769595  0.87342449    -0.08700
C1849       C  0.90955872  0.21961183  0.83820499     0.30200
C1850       C  0.93082832  0.19830814  0.83962257    -0.20600
C1851       C  0.93768927  0.18453543  0.87605109    -0.08700
C1852       C  0.92253806  0.19231316  0.91125079     0.30200
F1853       F  0.92788417  0.17904447  0.94694118    -0.19200
H1854       H  0.89016004  0.21955106  0.93739768     0.18600
H1855       H  0.94195324  0.19259008  0.81200719     0.18600
F1856       F  0.90311624  0.23162146  0.80209714    -0.19200
C1857       C  0.85139070  0.04061842  0.66205834    -0.20600
C1858       C  0.85347896  0.02132150  0.62971891    -0.08700
C1859       C  0.83400118  0.02294938  0.59754565     0.30200
C1860       C  0.81298828  0.04443916  0.59719240    -0.20600
C1861       C  0.81095100  0.06415608  0.62926349    -0.08700
C1862       C  0.83014114  0.06194580  0.66203251     0.30200
F1863       F  0.82886523  0.08075093  0.69344745    -0.19200
H1864       H  0.86630988  0.03918896  0.68713308     0.18600
H1865       H  0.79811052  0.04548597  0.57204510     0.18600
F1866       F  0.86028096  0.52803880  0.55411381    -0.19200
C1867       C  0.67629352  0.05501001  0.66396227    -0.20600
C1868       C  0.68854442  0.06403933  0.62730816    -0.08700
C1869       C  0.67846364  0.05176699  0.59100323     0.30200
C1870       C  0.65638650  0.03117425  0.59161084    -0.20600
C1871       C  0.64430467  0.02220050  0.62822389    -0.08700
C1872       C  0.65436477  0.03421638  0.66448639     0.30200
F1873       F  0.64254651  0.02642127  0.70029078    -0.19200
H1874       H  0.68351555  0.06419700  0.69227192     0.18600
H1875       H  0.64703715  0.52615378  0.56058598     0.18600
F1876       F  0.68998595  0.05939436  0.55488140    -0.19200
C1877       C  0.65209019  0.21499123  0.65911422    -0.20600
C1878       C  0.64278285  0.22659602  0.62240976    -0.08700
C1879       C  0.65532027  0.21691296  0.58628722     0.30200
C1880       C  0.67741636  0.19638802  0.58714103    -0.20600
C1881       C  0.68715278  0.18505258  0.62397039    -0.08700
C1882       C  0.67390734  0.19425657  0.66004152     0.30200
F1883       F  0.68190842  0.18330701  0.69628693    -0.24400
H1884       H  0.64236916  0.22198208  0.68716747     0.18600
H1885       H  0.68706629  0.18956481  0.55894496     0.18600
F1886       F  0.64690155  0.22792591  0.55032543    -0.19200
C1887       C  0.84792827  0.21518676  0.58721870    -0.20600
C1888       C  0.85473639  0.23040703  0.62261312    -0.08700
C1889       C  0.84039048  0.22308996  0.65864767     0.30200
C1890       C  0.81937782  0.20139515  0.65896984    -0.20600
C1891       C  0.81215122  0.18653341  0.62349139    -0.08700
C1892       C  0.82688979  0.19341530  0.58752594     0.30200
F1893       F  0.82114744  0.17912951  0.55265580    -0.19200
H1894       H  0.85864761  0.22041703  0.55910254     0.18600
H1895       H  0.80862532  0.19635616  0.68713519     0.18600
F1896       F  0.84695296  0.23645322  0.69384963    -0.19200
N1897       N  0.87160632  0.91905086  0.75150457    -0.35900
N1898       N  0.89257329  0.87582007  0.69207863    -0.56500
N1899       N  0.88057869  0.83153540  0.75271379    -0.35900
N1900       N  0.85935819  0.87459086  0.81189376    -0.56500
C1901       C  0.88168953  0.93646839  0.72153878     0.27700
C1902       C  0.86506365  0.93621756  0.78365317     0.27700
C1903       C  0.88785355  0.81445585  0.72075975     0.27600
C1904       C  0.87059206  0.81389954  0.78251919     0.27600
C1905       C  0.89168883  0.89929735  0.66787563     0.36300
C1906       C  0.89507542  0.85251257  0.66763385     0.36300
C1907       C  0.85569247  0.89791309  0.83611710     0.36300
C1908       C  0.85886720  0.85091283  0.83588853     0.36300
C1909       C  0.88135513  0.96491751  0.73498988    -0.21200
C1910       C  0.86945260  0.96488548  0.77256267    -0.21200
C1911       C  0.88443029  0.78578531  0.73195958    -0.21200
C1912       C  0.87163322  0.78553586  0.76889754    -0.21200
C1913       C  0.89365661  0.89087233  0.62786262    -0.22300
C1914       C  0.89584143  0.86130210  0.62770489    -0.22300
C1915       C  0.85283291  0.88891556  0.87578303    -0.22300
C1916       C  0.85491139  0.85928248  0.87564244    -0.22300
C1917       C  0.88905097  0.92825260  0.68117432    -0.17600
C1918       C  0.85696703  0.92728752  0.82359678    -0.17600
C1919       C  0.86212220  0.82186157  0.82262790    -0.17600
C1920       C  0.89479200  0.82329841  0.68043950    -0.17600
H1921       H  0.88836377  0.98421977  0.71931193     0.15300
H1922       H  0.86480832  0.98429348  0.78947176     0.15300
H1923       H  0.88995272  0.76659707  0.71512051     0.15300
H1924       H  0.86396120  0.76619321  0.78371361     0.15300
H1925       H  0.89275026  0.90445117  0.60135008     0.13600
H1926       H  0.89675475  0.84785696  0.60102564     0.13600
H1927       H  0.85060560  0.90224517  0.90241672     0.13600
H1928       H  0.85443302  0.84564305  0.90211493     0.13600
H1929       H  0.86740957  0.89715228  0.74886959     0.26800
H1930       H  0.88369769  0.85361306  0.75499295     0.26800
N1931       N  0.62102184  0.91913326  0.75234730    -0.35900
N1932       N  0.60805366  0.87605670  0.68888432    -0.56500
N1933       N  0.62827032  0.83143556  0.74523572    -0.35900
N1934       N  0.64127530  0.87448381  0.80860265    -0.56500
C1935       C  0.61346747  0.93703922  0.72161764     0.27700
C1936       C  0.63095333  0.93590305  0.78318679     0.27700
C1937       C  0.61936718  0.81463050  0.71387230     0.27600
C1938       C  0.63488886  0.81355932  0.77640353     0.27600
C1939       C  0.60506069  0.90027613  0.66633376     0.36300
C1940       C  0.60837627  0.85333291  0.66301243     0.36300
C1941       C  0.64204510  0.89735910  0.83411150     0.36300
C1942       C  0.64325796  0.85038290  0.83152911     0.36300
C1943       C  0.61679632  0.96541438  0.73464839    -0.21200
C1944       C  0.62958956  0.96464998  0.77158604    -0.21200
C1945       C  0.62047905  0.78584435  0.72561092    -0.21200
C1946       C  0.63189803  0.78516072  0.76335590    -0.21200
C1947       C  0.60323547  0.89275487  0.62591278    -0.22300
C1948       C  0.60536864  0.86318460  0.62384120    -0.22300
C1949       C  0.64476310  0.88775555  0.87344203    -0.22300
C1950       C  0.64540040  0.85811151  0.87185270    -0.22300
C1951       C  0.60599187  0.92920359  0.68101033    -0.17600
C1952       C  0.63930785  0.92676035  0.82271938    -0.17600
C1953       C  0.64175045  0.82146124  0.81711280    -0.17600
C1954       C  0.61199090  0.82386518  0.67399551    -0.17600
H1955       H  0.61101851  0.98509161  0.71922152     0.15300
H1956       H  0.63678080  0.98352961  0.78802940     0.15300
H1957       H  0.61414775  0.76678240  0.70887281     0.15300
H1958       H  0.63725224  0.76546868  0.77904798     0.15300
H1959       H  0.60182820  0.90702804  0.60018275     0.13600
H1960       H  0.60574145  0.85060317  0.59633890     0.13600
H1961       H  0.64508331  0.90060450  0.90071370     0.13600
H1962       H  0.64622827  0.84398603  0.89779467     0.13600
H1963       H  0.61789173  0.89701470  0.75307944     0.26800
H1964       H  0.63146710  0.85354628  0.74452668     0.26800
N1965       N  0.54491196  0.75385127  0.49315504    -0.35900
N1966       N  0.00093785  0.76846843  0.55534137    -0.56500
N1967       N  0.95562454  0.75049804  0.49752279    -0.35900
N1968       N  0.99830977  0.73489759  0.43563307    -0.56500
C1969       C  0.56320436  0.76072375  0.52390358     0.27700
C1970       C  0.56119195  0.74312714  0.46235975     0.27700
C1971       C  0.93933431  0.76155081  0.52808470     0.27600
C1972       C  0.93759947  0.74459256  0.46606265     0.27600
C1973       C  0.52693617  0.77128262  0.57886936     0.36300
C1974       C  0.97785016  0.76973989  0.58040393     0.36300
C1975       C  0.52234348  0.73166472  0.41186162     0.36300
C1976       C  0.97437818  0.73234180  0.41244242     0.36300
C1977       C  0.59135419  0.75588855  0.51102430    -0.21200
C1978       C  0.58994151  0.74322216  0.47402134    -0.21200
C1979       C  0.91075871  0.76268018  0.51565265    -0.21200
C1980       C  0.90946848  0.75063632  0.47817544    -0.21200
C1981       C  0.51943358  0.77368856  0.61925220    -0.22300
C1982       C  0.98719047  0.77193210  0.61995737    -0.22300
C1983       C  0.51256214  0.72675045  0.37302407    -0.22300
C1984       C  0.98242777  0.72903333  0.37239290    -0.22300
C1985       C  0.55577482  0.76919453  0.56429220    -0.17600
C1986       C  0.55177272  0.73492827  0.42281723    -0.17600
C1987       C  0.94538440  0.73520381  0.42608499    -0.17600
C1988       C  0.94847084  0.76829797  0.56829434    -0.17600
H1989       H  0.61133997  0.76054233  0.52645783     0.15300
H1990       H  0.60845576  0.73525307  0.45752149     0.15300
H1991       H  0.89220242  0.77054632  0.53219467     0.15300
H1992       H  0.88949748  0.74676832  0.46229578     0.15300
H1993       H  0.53369558  0.77476118  0.64501913     0.13600
H1994       H  0.97411960  0.77251577  0.64700180     0.13600
H1995       H  0.52525532  0.72493990  0.34574243     0.13600
H1996       H  0.96856472  0.72764343  0.34624000     0.13600
H1997       H  0.52299770  0.75801373  0.49220553     0.26800
H1998       H  0.97719222  0.74495204  0.49942990     0.26800
C1999       C  0.87833282  0.75417791  0.62367931     0.03800
C2000       C  0.87442249  0.78013588  0.64455297    -0.12300
C2001       C  0.89732812  0.79995662  0.64887217     0.01300
C2002       C  0.92225577  0.79640871  0.62447705    -0.10900
C2003       C  0.92509772  0.77157704  0.59965343     0.03800
C2004       C  0.90413743  0.74959809  0.60272153    -0.10300
H2005       H  0.85421184  0.78392495  0.66027589     0.09400
H2006       H  0.93909936  0.81275877  0.62474457     0.06900
H2007       H  0.90712941  0.72950366  0.58633369     0.06800
C2008       C  0.62592099  0.75367512  0.61887219     0.03800
C2009       C  0.59985357  0.74942522  0.59861228    -0.12300
C2010       C  0.58010559  0.77226861  0.59422675     0.01300
C2011       C  0.58416593  0.79751671  0.61787791    -0.10900
C2012       C  0.60919241  0.80070313  0.64211559     0.03800
C2013       C  0.63113328  0.77982285  0.63868740    -0.10300
H2014       H  0.59588836  0.72889482  0.58368890     0.09400
H2015       H  0.56778755  0.81421793  0.61791879     0.06900
H2016       H  0.65136041  0.78276164  0.65471731     0.06800
N2017       N  0.95376827  0.99878961  0.50118827    -0.35900
N2018       N  0.50118602  0.51659361  0.44085119    -0.56500
N2019       N  0.54243848  0.00273904  0.50160763    -0.35900
N2020       N  0.49914654  0.98349198  0.56063731    -0.56500
C2021       C  0.93872198  0.50999337  0.47084287     0.27700
C2022       C  0.93636923  0.99347317  0.53347029     0.27700
C2023       C  0.56223135  0.50904342  0.46794629     0.27600
C2024       C  0.55999413  0.99404090  0.53215102     0.27600
C2025       C  0.97548987  0.52085193  0.41693200     0.36300
C2026       C  0.52411564  0.51672098  0.41554164     0.36300
C2027       C  0.97418970  0.98158786  0.58571846     0.36300
C2028       C  0.52254540  0.98320188  0.58505782     0.36300
C2029       C  0.91054847  0.50480871  0.48329245    -0.21200
C2030       C  0.90804669  0.99972181  0.52253097    -0.21200
C2031       C  0.59067220  0.51079401  0.48071224    -0.21200
C2032       C  0.58847849  0.99598347  0.51923118    -0.21200
C2033       C  0.98365319  0.52334140  0.37682857    -0.22300
C2034       C  0.51479049  0.51828542  0.37596421    -0.22300
C2035       C  0.98290603  0.97802037  0.62539667    -0.22300
C2036       C  0.51383089  0.98066254  0.62488136    -0.22300
C2037       C  0.94647496  0.51870412  0.43064446    -0.17600
C2038       C  0.94496357  0.98455622  0.57317030    -0.17600
C2039       C  0.55164863  0.98607184  0.57225453    -0.17600
C2040       C  0.55334568  0.51543713  0.42766852    -0.17600
H2041       H  0.89071471  0.50981449  0.46784879     0.15300
H2042       H  0.88833469  0.99640187  0.53929501     0.15300
H2043       H  0.60916507  0.51927484  0.46457207     0.15300
H2044       H  0.60794188  0.99011145  0.53519465     0.15300
H2045       H  0.96985313  0.52436793  0.35058574     0.13600
H2046       H  0.52781982  0.51802610  0.34886240     0.13600
H2047       H  0.96945380  0.97656864  0.65201035     0.13600
H2048       H  0.52722455  0.98080878  0.65158397     0.13600
H2049       H  0.97515969  0.99282655  0.49839726     0.26800
H2050       H  0.52033179  0.00499865  0.50302023     0.26800
C2051       C  0.62604472  0.49706149  0.62489296     0.03800
C2052       C  0.62572246  0.97378312  0.64785560    -0.12300
C2053       C  0.60315646  0.95348007  0.65101188     0.01300
C2054       C  0.57830183  0.95730786  0.62674510    -0.10900
C2055       C  0.57524436  0.98260235  0.60300316     0.03800
C2056       C  0.59952021  0.50202850  0.60615793    -0.10300
H2057       H  0.64598046  0.97005970  0.66342409     0.09400
H2058       H  0.56164304  0.94077067  0.62622320     0.06900
H2059       H  0.59527486  0.52308866  0.59304427     0.06800
C2060       C  0.87866253  0.49948491  0.62629599     0.03800
C2061       C  0.87039998  0.97271165  0.64809008    -0.12300
C2062       C  0.89238436  0.95205951  0.65088141     0.01300
C2063       C  0.91748066  0.95561875  0.62684549    -0.10900
C2064       C  0.92160678  0.98140085  0.60448820     0.03800
C2065       C  0.90509475  0.50489035  0.60726427    -0.10300
H2066       H  0.84994690  0.96924323  0.66343923     0.09400
H2067       H  0.93360228  0.93868393  0.62570882     0.06900
H2068       H  0.90847859  0.52527256  0.59175361     0.06800
N2069       N  0.79279126  0.75020400  0.99841617    -0.35900
N2070       N  0.74768539  0.73551125  0.05805712    -0.56500
N2071       N  0.70446470  0.75331241  0.99805617    -0.35900
N2072       N  0.74959727  0.76674081  0.93781493    -0.56500
C2073       C  0.80941926  0.74084749  0.02947731     0.27700
C2074       C  0.81062614  0.75728267  0.96732641     0.27700
C2075       C  0.68703253  0.74321168  0.02801495     0.27600
C2076       C  0.68763323  0.75856876  0.96532633     0.27600
C2077       C  0.77096312  0.73387507  0.08253104     0.36300
C2078       C  0.72407849  0.73522016  0.08212063     0.36300
C2079       C  0.77344440  0.76911739  0.91426105     0.36300
C2080       C  0.72632938  0.76925307  0.91337121     0.36300
C2081       C  0.83813263  0.74126524  0.01722670    -0.21200
C2082       C  0.83899298  0.75309617  0.97963631    -0.21200
C2083       C  0.65880695  0.74243967  0.01399933    -0.21200
C2084       C  0.65899666  0.75361909  0.97605256    -0.21200
C2085       C  0.76205930  0.73251337  0.12241216    -0.22300
C2086       C  0.73239551  0.73339593  0.12214870    -0.22300
C2087       C  0.76522148  0.77326866  0.87454263    -0.22300
C2088       C  0.73555835  0.77326258  0.87394831    -0.22300
C2089       C  0.80016954  0.73404757  0.06963764    -0.17600
C2090       C  0.80250490  0.76587493  0.92738509    -0.17600
C2091       C  0.69692014  0.76622323  0.92539936    -0.17600
C2092       C  0.69511663  0.73628973  0.06851329    -0.17600
H2093       H  0.85703722  0.73428074  0.03360518     0.15300
H2094       H  0.85875386  0.75782004  0.96353658     0.15300
H2095       H  0.63952785  0.73503392  0.02933218     0.15300
H2096       H  0.63966907  0.75757288  0.95881404     0.15300
H2097       H  0.77547787  0.73161991  0.14906896     0.13600
H2098       H  0.71862156  0.73325749  0.14853695     0.13600
H2099       H  0.77900510  0.77492058  0.84827717     0.13600
H2100       H  0.72246809  0.77487928  0.84707047     0.13600
H2101       H  0.77078394  0.75192074  0.99866291     0.26800
H2102       H  0.72598432  0.75832199  0.00074141     0.26800
C2103       C  0.87222709  0.74931087  0.87312896     0.03800
C2104       C  0.84546586  0.74528320  0.89180178    -0.12300
C2105       C  0.82642071  0.76861562  0.89683788     0.01300
C2106       C  0.83173999  0.79439733  0.87499643    -0.10900
C2107       C  0.85755859  0.79760842  0.85236821     0.03800
C2108       C  0.87879098  0.77601284  0.85560160    -0.10300
H2109       H  0.84061143  0.72464187  0.90587103     0.09400
H2110       H  0.81596133  0.81166169  0.87557140     0.06900
H2111       H  0.89971520  0.77911958  0.84141210     0.06800
C2112       C  0.62790114  0.74989906  0.86892126     0.03800
C2113       C  0.62268751  0.77642285  0.85017455    -0.12300
C2114       C  0.64478813  0.79727914  0.84703178     0.01300
C2115       C  0.66984772  0.79393282  0.87083855    -0.10900
C2116       C  0.67388865  0.76847873  0.89363404     0.03800
C2117       C  0.65427819  0.74544524  0.88844315    -0.10300
H2118       H  0.60216730  0.77994649  0.83519910     0.09400
H2119       H  0.68594483  0.81101055  0.87177340     0.06900
H2120       H  0.65819954  0.72492598  0.90328737     0.06800
N2121       N  0.87945008  0.58094725  0.24664394    -0.35900
N2122       N  0.85769395  0.62304402  0.18763884    -0.56500
N2123       N  0.86989167  0.66843542  0.24805220    -0.35900
N2124       N  0.89180091  0.62643179  0.30693991    -0.56500
C2125       C  0.86982987  0.56295884  0.21692842     0.27700
C2126       C  0.88590038  0.56432430  0.27929409     0.27700
C2127       C  0.86204668  0.68502053  0.21605247     0.27600
C2128       C  0.87989831  0.68655488  0.27736228     0.27600
C2129       C  0.85768567  0.59942394  0.16347351     0.36300
C2130       C  0.85376617  0.64628085  0.16351625     0.36300
C2131       C  0.89401254  0.60326023  0.33162187     0.36300
C2132       C  0.89170480  0.65017929  0.33088414     0.36300
C2133       C  0.87057789  0.53474744  0.23105002    -0.21200
C2134       C  0.88218301  0.53544781  0.26873541    -0.21200
C2135       C  0.86521059  0.71391284  0.22669573    -0.21200
C2136       C  0.87821605  0.71477139  0.26344723    -0.21200
C2137       C  0.85359706  0.60770559  0.12376161    -0.22300
C2138       C  0.85103851  0.63729886  0.12379010    -0.22300
C2139       C  0.89547947  0.61245018  0.37138481    -0.22300
C2140       C  0.89403051  0.64204455  0.37089749    -0.22300
C2141       C  0.86151503  0.57052254  0.17666843    -0.17600
C2142       C  0.89273701  0.57384729  0.31944719    -0.17600
C2143       C  0.88861069  0.67907905  0.31746358    -0.17600
C2144       C  0.85455957  0.67560336  0.17617314    -0.17600
H2145       H  0.86337010  0.51522620  0.21612338     0.15300
H2146       H  0.88663960  0.51632766  0.28632557     0.15300
H2147       H  0.85935829  0.73289026  0.20961027     0.15300
H2148       H  0.88536676  0.73439446  0.27809910     0.15300
H2149       H  0.85331201  0.59404681  0.09726265     0.13600
H2150       H  0.84849997  0.65065407  0.09727311     0.13600
H2151       H  0.89621421  0.59928976  0.39829758     0.13600
H2152       H  0.89346729  0.65579468  0.39728920     0.13600
H2153       H  0.88296784  0.60294841  0.24400514     0.26800
H2154       H  0.86697127  0.64635097  0.25055023     0.26800
N2155       N  0.70429250  0.99480041  0.00509113    -0.35900
N2156       N  0.75069016  0.51257410  0.06078581    -0.56500
N2157       N  0.79228303  0.00097632  0.00355474    -0.35900
N2158       N  0.74884958  0.98061998  0.94461068    -0.56500
C2159       C  0.68903932  0.50430737  0.03187743     0.27700
C2160       C  0.68736476  0.98547486  0.97419260     0.27700
C2161       C  0.81185180  0.50179713  0.03338727     0.27600
C2162       C  0.80959614  0.99057479  0.97367866     0.27600
C2163       C  0.72703826  0.51645421  0.08420709     0.36300
C2164       C  0.77416580  0.51545946  0.08491006     0.36300
C2165       C  0.72532354  0.97922904  0.92038676     0.36300
C2166       C  0.77232902  0.98116187  0.92018893     0.36300
C2167       C  0.66058661  0.49830983  0.02109013    -0.21200
C2168       C  0.65873502  0.98600485  0.98667237    -0.21200
C2169       C  0.84028474  0.49694837  0.02163503    -0.21200
C2170       C  0.83788618  0.99030905  0.98738989    -0.21200
C2171       C  0.73561204  0.52171444  0.12361064    -0.22300
C2172       C  0.76529289  0.52108062  0.12404187    -0.22300
C2173       C  0.73400677  0.97858453  0.88039279    -0.22300
C2174       C  0.76368331  0.97977847  0.88027677    -0.22300
C2175       C  0.69781712  0.51333664  0.07148995    -0.17600
C2176       C  0.69608040  0.97968048  0.93354067    -0.17600
C2177       C  0.80144477  0.98332486  0.93324228    -0.17600
C2178       C  0.80341509  0.51160986  0.07276626    -0.17600
H2179       H  0.64107066  0.50175295  0.03824133     0.15300
H2180       H  0.63965295  0.97938939  0.97022550     0.15300
H2181       H  0.85999103  0.50187825  0.03762855     0.15300
H2182       H  0.85701632  0.98279865  0.97189278     0.15300
H2183       H  0.72201167  0.52464161  0.14983326     0.13600
H2184       H  0.77862356  0.52341532  0.15061303     0.13600
H2185       H  0.72044348  0.97825253  0.85386109     0.13600
H2186       H  0.77721989  0.98051597  0.85367715     0.13600
H2187       H  0.72645946  0.99613898  0.00485367     0.26800
H2188       H  0.77065777  0.00589230  0.00079549     0.26800
C2189       C  0.62665303  0.49575428  0.87507486     0.03800
C2190       C  0.65241697  0.50053452  0.89597632    -0.12300
C2191       C  0.67232993  0.97751691  0.90265757     0.01300
C2192       C  0.66853333  0.95301078  0.87755361    -0.10900
C2193       C  0.64298502  0.94987791  0.85440245     0.03800
C2194       C  0.62065592  0.97008239  0.85980766    -0.10300
H2195       H  0.65520959  0.52049469  0.91278576     0.09400
H2196       H  0.68513579  0.93655186  0.87623703     0.06900
H2197       H  0.60009092  0.96666339  0.84485435     0.06800
C2198       C  0.87333577  0.49557796  0.87916123     0.03800
C2199       C  0.87704158  0.97007105  0.86054974    -0.12300
C2200       C  0.85397351  0.95062383  0.85516321     0.01300
C2201       C  0.82848514  0.95473717  0.87828307    -0.10900
C2202       C  0.82544288  0.97972190  0.90285401     0.03800
C2203       C  0.84674670  0.49996636  0.89802282    -0.10300
H2204       H  0.89752706  0.96605452  0.84562910     0.09400
H2205       H  0.81136307  0.93870110  0.87725894     0.06900
H2206       H  0.84276914  0.52011749  0.91385704     0.06800
N2207       N  0.62070608  0.58030055  0.24501759    -0.35900
N2208       N  0.64080080  0.62319405  0.18569925    -0.56500
N2209       N  0.62742060  0.66808722  0.24619563    -0.35900
N2210       N  0.60727765  0.62505481  0.30526941    -0.56500
C2211       C  0.63194560  0.56288765  0.21583838     0.27700
C2212       C  0.61482182  0.56332988  0.27755263     0.27700
C2213       C  0.63437111  0.68497302  0.21399956     0.27600
C2214       C  0.61802925  0.68584420  0.27624135     0.27600
C2215       C  0.64139901  0.59951856  0.16167195     0.36300
C2216       C  0.64308880  0.64651239  0.16128965     0.36300
C2217       C  0.60386478  0.60172567  0.32947276     0.36300
C2218       C  0.60580223  0.64876656  0.32920422     0.36300
C2219       C  0.63313250  0.53480316  0.23031130    -0.21200
C2220       C  0.62055757  0.53476454  0.26732195    -0.21200
C2221       C  0.63102303  0.71377705  0.22494329    -0.21200
C2222       C  0.61949831  0.71425578  0.26275799    -0.21200
C2223       C  0.64431032  0.60782362  0.12175950    -0.22300
C2224       C  0.64543530  0.63753702  0.12151127    -0.22300
C2225       C  0.60008833  0.61076678  0.36900627    -0.22300
C2226       C  0.60133729  0.64042081  0.36882545    -0.22300
C2227       C  0.63916346  0.57055479  0.17529614    -0.17600
C2228       C  0.60639441  0.57238000  0.31725467    -0.17600
C2229       C  0.60917696  0.67782258  0.31617338    -0.17600
C2230       C  0.64142181  0.67580050  0.17387231    -0.17600
H2231       H  0.64174141  0.51576627  0.21570014     0.15300
H2232       H  0.61650479  0.51536296  0.28449432     0.15300
H2233       H  0.63570670  0.73292067  0.20738323     0.15300
H2234       H  0.61290638  0.73377842  0.27816217     0.15300
H2235       H  0.64477096  0.59405072  0.09537976     0.13600
H2236       H  0.64685641  0.65094203  0.09485541     0.13600
H2237       H  0.59788647  0.59750926  0.39568235     0.13600
H2238       H  0.60014594  0.65408925  0.39525474     0.13600
H2239       H  0.61521839  0.60184572  0.24174701     0.26800
H2240       H  0.63009284  0.64597168  0.24810419     0.26800
C2241       C  0.62405217  0.99917603  0.12770784     0.03800
C2242       C  0.62253712  0.52384630  0.14468531    -0.12300
C2243       C  0.64343454  0.54601866  0.14600154     0.01300
C2244       C  0.66891771  0.54275285  0.12282283    -0.10900
C2245       C  0.67439884  0.51636885  0.10257697     0.03800
C2246       C  0.65136104  0.99397228  0.11133633    -0.10300
H2247       H  0.60179141  0.52700426  0.15929508     0.09400
H2248       H  0.68437701  0.56035617  0.12076751     0.06900
H2249       H  0.65614606  0.97277811  0.09895479     0.06800
C2250       C  0.86936563  0.99709214  0.13003995     0.03800
C2251       C  0.84234368  0.99324730  0.11215182    -0.12300
C2252       C  0.82709413  0.51553735  0.10355572     0.01300
C2253       C  0.83183087  0.54186962  0.12453067    -0.10900
C2254       C  0.85758625  0.54607711  0.14699079     0.03800
C2255       C  0.87949718  0.52520917  0.14380231    -0.10300
H2256       H  0.83738945  0.97281350  0.09753139     0.09400
H2257       H  0.81567809  0.55876333  0.12349118     0.06900
H2258       H  0.90040416  0.52938393  0.15741135     0.06800
C2259       C  0.87131131  0.74478649  0.12153690     0.03800
C2260       C  0.84460509  0.75123844  0.10434413    -0.12300
C2261       C  0.82338715  0.72971283  0.10043207     0.01300
C2262       C  0.82629229  0.70389165  0.12293190    -0.10900
C2263       C  0.85201097  0.69878815  0.14476566     0.03800
C2264       C  0.87545085  0.71782656  0.13952455    -0.10300
H2265       H  0.84140640  0.77210776  0.09009298     0.09400
H2266       H  0.80894162  0.68808298  0.12338986     0.06900
H2267       H  0.89614276  0.71281702  0.15314113     0.06800
C2268       C  0.62229293  0.74403808  0.11838123     0.03800
C2269       C  0.64896694  0.75141971  0.10123596    -0.12300
C2270       C  0.67115194  0.73093015  0.09816530     0.01300
C2271       C  0.66886347  0.70511083  0.12084011    -0.10900
C2272       C  0.64319763  0.69900777  0.14238888     0.03800
C2273       C  0.61913084  0.71700180  0.13685411    -0.10300
H2274       H  0.65179258  0.77240738  0.08714190     0.09400
H2275       H  0.68673061  0.69002654  0.12177649     0.06900
H2276       H  0.59861818  0.71093365  0.15027918     0.06800
C2277       C  0.62041238  0.00076736  0.37562289     0.03800
C2278       C  0.62807230  0.53077335  0.35465396    -0.12300
C2279       C  0.60436244  0.54928120  0.34907291     0.01300
C2280       C  0.57898992  0.54431439  0.37200308    -0.10900
C2281       C  0.57674315  0.51939451  0.39665061     0.03800
C2282       C  0.59382017  0.99619190  0.39449361    -0.10300
H2283       H  0.64846251  0.53541801  0.33976395     0.09400
H2284       H  0.56140328  0.55971680  0.37089843     0.06900
H2285       H  0.58964728  0.97577158  0.40955937     0.06800
C2286       C  0.87396044  0.00571340  0.37850038     0.03800
C2287       C  0.87168874  0.53144201  0.35607500    -0.12300
C2288       C  0.89473967  0.55100250  0.35161609     0.01300
C2289       C  0.91950826  0.54738544  0.37610500    -0.10900
C2290       C  0.92249852  0.52224240  0.40015044     0.03800
C2291       C  0.90010083  0.99983714  0.39773961    -0.10300
H2292       H  0.85145204  0.53560827  0.34069522     0.09400
H2293       H  0.93635463  0.56373465  0.37606107     0.06900
H2294       H  0.90301094  0.97916111  0.41263040     0.06800
C2295       C  0.87604343  0.75054804  0.37000940     0.03800
C2296       C  0.87068441  0.72436148  0.35053936    -0.12300
C2297       C  0.89242683  0.70335503  0.34749574     0.01300
C2298       C  0.91739830  0.70654294  0.37201269    -0.10900
C2299       C  0.92150942  0.73198009  0.39540999     0.03800
C2300       C  0.90211698  0.75492639  0.39009797    -0.10300
H2301       H  0.85020577  0.72119101  0.33522409     0.09400
H2302       H  0.93347062  0.68955719  0.37276019     0.06900
H2303       H  0.90614150  0.77558515  0.40464795     0.06800
C2304       C  0.62203096  0.74911442  0.36900078     0.03800
C2305       C  0.62727212  0.72242066  0.35061669    -0.12300
C2306       C  0.60501802  0.70194005  0.34622992     0.01300
C2307       C  0.57916569  0.70587570  0.36863181    -0.10900
C2308       C  0.57492833  0.73162803  0.39112163     0.03800
C2309       C  0.59512486  0.75418159  0.38680656    -0.10300
H2310       H  0.64813901  0.71838963  0.33678764     0.09400
H2311       H  0.56275658  0.68910005  0.36882682     0.06900
H2312       H  0.59090328  0.77491620  0.40093308     0.06800
O2313       O  0.96783420  0.90142079  0.08671673    -0.71100
O2314       O  0.52514038  0.84348800  0.08737035    -0.71300
O2315       O  0.96856946  0.84348777  0.08430627    -0.71200
O2316       O  0.52581260  0.90143300  0.08968474    -0.71200
O2317       O  0.52675168  0.90030255  0.15508156    -0.71100
O2318       O  0.97006403  0.84156457  0.14963101    -0.71200
O2319       O  0.52639596  0.84234294  0.15277443    -0.71100
O2320       O  0.96776018  0.89919269  0.15203968    -0.71300
V2321       V  0.99720665  0.87287390  0.08617155     1.35200
V2322       V  0.99768930  0.87160750  0.14902591     1.35200
C2323       C  0.95759725  0.90984011  0.12005234     0.78100
C2324       C  0.53521596  0.83270731  0.11929681     0.78200
C2325       C  0.95973557  0.83235194  0.11685135     0.78100
C2326       C  0.53621710  0.91070745  0.12246918     0.78000
O2327       O  0.77683796  0.90701320  0.34086179    -0.71100
O2328       O  0.72197028  0.84617496  0.33874048    -0.71300
O2329       O  0.71905549  0.90390557  0.33994528    -0.71200
O2330       O  0.77963873  0.84914127  0.33992543    -0.71200
O2331       O  0.77780416  0.84730958  0.40523120    -0.71100
O2332       O  0.71957571  0.90448021  0.40534066    -0.71200
O2333       O  0.72001459  0.84675495  0.40410272    -0.71100
O2334       O  0.77748127  0.90530135  0.40619990    -0.71300
V2335       V  0.74939031  0.87655983  0.34112564     1.35200
V2336       V  0.74877026  0.87598303  0.40398210     1.35200
C2337       C  0.78672352  0.91642939  0.37383042     0.78100
C2338       C  0.71129021  0.83638579  0.37100560     0.78200
C2339       C  0.70903331  0.91362641  0.37267731     0.78100
C2340       C  0.78869190  0.83846894  0.37258035     0.78000
O2341       O  0.72230944  0.59726749  0.59152148    -0.71100
O2342       O  0.78142210  0.65403622  0.59079293    -0.71300
O2343       O  0.78007802  0.59608214  0.59214662    -0.71200
O2344       O  0.72353593  0.65519039  0.59044180    -0.71200
O2345       O  0.72178481  0.65447525  0.65579337    -0.71100
O2346       O  0.78093833  0.59804065  0.65749455    -0.71200
O2347       O  0.77978237  0.65613877  0.65607886    -0.71100
O2348       O  0.72319062  0.59654069  0.65688977    -0.71300
V2349       V  0.75183822  0.62566371  0.59248701     1.35200
V2350       V  0.75146340  0.62632368  0.65533077     1.35200
C2351       C  0.71291222  0.58689583  0.62422695     0.78100
C2352       C  0.79044656  0.66511339  0.62323352     0.78200
C2353       C  0.79017530  0.58698488  0.62514892     0.78100
C2354       C  0.71263940  0.66459361  0.62285483     0.78000
O2355       O  0.52917008  0.59401078  0.84379678    -0.71100
O2356       O  0.97092855  0.65171080  0.84480062    -0.71300
O2357       O  0.52825317  0.65204626  0.84180925    -0.71200
O2358       O  0.97096180  0.59397609  0.84632662    -0.71200
O2359       O  0.97050477  0.59455788  0.91171684    -0.71100
O2360       O  0.52919555  0.65276692  0.90716527    -0.71200
O2361       O  0.97016464  0.65238774  0.91018005    -0.71100
O2362       O  0.52943441  0.59479966  0.90917235    -0.71300
V2363       V  0.99985417  0.62286821  0.84739143     1.35200
V2364       V  0.99936029  0.62381751  0.91025376     1.35200
C2365       C  0.53912320  0.58442542  0.87664128     0.78100
C2366       C  0.96038265  0.66163826  0.87711030     0.78200
C2367       C  0.53863957  0.66236487  0.87400946     0.78100
C2368       C  0.96086271  0.58432719  0.87899602     0.78000
C2369       C  0.67316218  0.80764877  0.40538286    -0.20600
C2370       C  0.68882962  0.81377532  0.37017995    -0.08700
C2371       C  0.68239939  0.79851071  0.33455525     0.30200
C2372       C  0.66057944  0.77760647  0.33442115    -0.20600
C2373       C  0.64480890  0.77159234  0.36962654    -0.08700
C2374       C  0.65133009  0.78683933  0.40521244     0.30200
F2375       F  0.63716048  0.78129181  0.44015128    -0.19200
H2376       H  0.67768260  0.81910540  0.43318264     0.18600
H2377       H  0.65583080  0.76625456  0.30661447     0.18600
F2378       F  0.69724666  0.80354268  0.29992825    -0.19200
C2379       C  0.82415098  0.80799251  0.33571529    -0.20600
C2380       C  0.81124686  0.81608868  0.37237455    -0.08700
C2381       C  0.81990817  0.80234666  0.40824889     0.30200
C2382       C  0.84120041  0.78110314  0.40718126    -0.20600
C2383       C  0.85392038  0.77313070  0.37053310    -0.08700
C2384       C  0.84529938  0.78661978  0.33473851     0.30200
F2385       F  0.85769618  0.77953409  0.29901719    -0.19200
H2386       H  0.81792583  0.81823306  0.30770433     0.18600
H2387       H  0.84750845  0.77057788  0.43493055     0.18600
F2388       F  0.80769851  0.80909404  0.44426756    -0.19200
C2389       C  0.83930080  0.97480036  0.34038001    -0.20600
C2390       C  0.85093251  0.98361380  0.37743487    -0.08700
C2391       C  0.84097175  0.97071825  0.41316049     0.30200
C2392       C  0.81995887  0.94904141  0.41170602    -0.20600
C2393       C  0.80856219  0.93978550  0.37463344    -0.08700
C2394       C  0.81834255  0.95301046  0.33882924     0.30200
F2395       F  0.80788376  0.94487539  0.30230721    -0.19200
H2396       H  0.84686033  0.98446200  0.31253515     0.18600
H2397       H  0.81269529  0.93942726  0.43971892     0.18600
F2398       F  0.85868589  0.47180320  0.44502158    -0.19200
C2399       C  0.67325830  0.94362758  0.40979690    -0.20600
C2400       C  0.68567386  0.93518661  0.37298362    -0.08700
C2401       C  0.67576210  0.94781141  0.33700955     0.30200
C2402       C  0.65442006  0.96900951  0.33820980    -0.20600
C2403       C  0.64239492  0.97776210  0.37504717    -0.08700
C2404       C  0.65172098  0.96463093  0.41089574     0.30200
F2405       F  0.65012443  0.48220559  0.44611578    -0.19200
H2406       H  0.68036615  0.93413543  0.43791359     0.18600
H2407       H  0.64724974  0.97855991  0.31022455     0.18600
F2408       F  0.68686128  0.94005705  0.30069515    -0.19200
C2409       C  0.59334377  0.78167850  0.08282912    -0.20600
C2410       C  0.59824194  0.76506321  0.11763180    -0.08700
C2411       C  0.58118702  0.77005459  0.15209799     0.30200
C2412       C  0.56054074  0.79189310  0.15203127    -0.20600
C2413       C  0.55642713  0.80914432  0.11780533    -0.08700
C2414       C  0.57269516  0.80360482  0.08283393     0.30200
F2415       F  0.56941535  0.81991900  0.04914029    -0.19200
H2416       H  0.60583698  0.77797144  0.05568621     0.18600
H2417       H  0.54795690  0.79553294  0.17911918     0.18600
F2418       F  0.58521067  0.75487501  0.18657528    -0.19200
C2419       C  0.90145349  0.78007723  0.08359681    -0.20600
C2420       C  0.89483113  0.76627104  0.12013036    -0.08700
C2421       C  0.91017181  0.77379562  0.15511011     0.30200
C2422       C  0.93142261  0.79512315  0.15353633    -0.20600
C2423       C  0.93784588  0.80923782  0.11713616    -0.08700
C2424       C  0.92283767  0.80135451  0.08194737     0.30200
F2425       F  0.92836614  0.81444660  0.04614296    -0.19200
H2426       H  0.88998664  0.77441130  0.05625702     0.18600
H2427       H  0.94269318  0.80075266  0.18106419     0.18600
F2428       F  0.90405114  0.76135120  0.19111618    -0.19200
C2429       C  0.90058876  0.96425908  0.08982835    -0.20600
C2430       C  0.89116357  0.97404217  0.12762648    -0.08700
C2431       C  0.90306555  0.96210941  0.16269455     0.30200
C2432       C  0.92448176  0.94107524  0.15987065    -0.20600
C2433       C  0.93443576  0.93162291  0.12205789    -0.08700
C2434       C  0.92210584  0.94327914  0.08690373     0.30200
F2435       F  0.93085414  0.93464885  0.04973643    -0.19200
H2436       H  0.88966896  0.46436077  0.06392305     0.18600
H2437       H  0.93335147  0.93227529  0.18743897     0.18600
F2438       F  0.89368365  0.97036157  0.19966066    -0.19200
C2439       C  0.59583769  0.96188484  0.09019010    -0.20600
C2440       C  0.60171963  0.97635420  0.12654016    -0.08700
C2441       C  0.58615741  0.96888843  0.16135930     0.30200
C2442       C  0.56490751  0.94749776  0.15963033    -0.20600
C2443       C  0.55875958  0.93322541  0.12321527    -0.08700
C2444       C  0.57448981  0.94053484  0.08838019     0.30200
F2445       F  0.56963386  0.92684432  0.05278497    -0.19200
H2446       H  0.60761402  0.96724937  0.06301181     0.18600
H2447       H  0.55319472  0.94214974  0.18693263     0.18600
F2448       F  0.59194701  0.98172574  0.19725839    -0.19200
C2449       C  0.90814935  0.52718880  0.84300738    -0.20600
C2450       C  0.89556142  0.51840217  0.87944338    -0.08700
C2451       C  0.90445190  0.53136690  0.91568037     0.30200
C2452       C  0.92572537  0.55281056  0.91530094    -0.20600
C2453       C  0.93837082  0.56169268  0.87883760    -0.08700
C2454       C  0.92932893  0.54867655  0.84252829     0.30200
F2455       F  0.94095198  0.55647907  0.80653193    -0.19200
H2456       H  0.90139477  0.51750402  0.81478287     0.18600
H2457       H  0.93233915  0.56240945  0.94363396     0.18600
F2458       F  0.89480659  0.02284278  0.95258945    -0.19200
C2459       C  0.57159705  0.55051752  0.84003378    -0.20600
C2460       C  0.56133937  0.56153375  0.87679439    -0.08700
C2461       C  0.57240257  0.55029254  0.91310189     0.30200
C2462       C  0.59356104  0.52879129  0.91229088    -0.20600
C2463       C  0.60377893  0.51793390  0.87547443    -0.08700
C2464       C  0.59253931  0.52891301  0.83929371     0.30200
F2465       F  0.60237582  0.51948584  0.80313547    -0.19200
H2466       H  0.56352393  0.55873202  0.81164759     0.18600
H2467       H  0.60515842  0.02475075  0.94677696     0.18600
F2468       F  0.56286255  0.55994862  0.94938621    -0.19200
C2469       C  0.59540685  0.71676251  0.90698891    -0.20600
C2470       C  0.60525704  0.72733770  0.86983474    -0.08700
C2471       C  0.59307262  0.71654524  0.83407570     0.30200
C2472       C  0.57140844  0.69544224  0.83565224    -0.20600
C2473       C  0.56138940  0.68489443  0.87287871    -0.08700
C2474       C  0.57359774  0.69586973  0.90866876     0.30200
F2475       F  0.56455374  0.68653528  0.94536975    -0.19200
H2476       H  0.60434836  0.72496430  0.93487417     0.18600
H2477       H  0.56253164  0.68731174  0.80763615     0.18600
F2478       F  0.60251749  0.72587784  0.79762073    -0.19200
C2479       C  0.90249594  0.71418178  0.91058461    -0.20600
C2480       C  0.89387997  0.72601413  0.87365448    -0.08700
C2481       C  0.90643893  0.71585982  0.83779684     0.30200
C2482       C  0.92789197  0.69473538  0.83912567    -0.20600
C2483       C  0.93716790  0.68342524  0.87619130    -0.08700
C2484       C  0.92395852  0.69309894  0.91200523     0.30200
F2485       F  0.93174944  0.68236290  0.94845827    -0.19200
H2486       H  0.89294693  0.72166671  0.93850103     0.18600
H2487       H  0.93734875  0.68735992  0.81107128     0.18600
F2488       F  0.89769099  0.72596933  0.80147761    -0.19200
C2489       C  0.84098783  0.52853479  0.66150338    -0.20600
C2490       C  0.85548105  0.52135951  0.62568359    -0.08700
C2491       C  0.84769519  0.53525099  0.58964429     0.30200
C2492       C  0.82631620  0.55641389  0.58976970    -0.20600
C2493       C  0.81225165  0.56408353  0.62570541    -0.08700
C2494       C  0.81949461  0.54964502  0.66162836     0.30200
F2495       F  0.80569882  0.55563226  0.69678639    -0.19200
H2496       H  0.84654936  0.51802059  0.68958392     0.18600
H2497       H  0.82089210  0.56693386  0.56163062     0.18600
F2498       F  0.83521948  0.00363060  0.56674336    -0.19200
C2499       C  0.68213072  0.55107190  0.66076634    -0.20600
C2500       C  0.69059485  0.56400366  0.62427560    -0.08700
C2501       C  0.67759502  0.55471802  0.58813199     0.30200
C2502       C  0.65662268  0.53299597  0.58875343    -0.20600
C2503       C  0.64833431  0.51997906  0.62515452    -0.08700
C2504       C  0.66123167  0.52920108  0.66127223     0.30200
F2505       F  0.65316149  0.51763893  0.69712427    -0.19200
H2506       H  0.69169339  0.55786861  0.68902706     0.18600
H2507       H  0.64894179  0.02190004  0.56345970     0.18600
F2508       F  0.68498687  0.56656750  0.55212159    -0.19200
C2509       C  0.65315571  0.71577132  0.65576629    -0.20600
C2510       C  0.64766891  0.73056629  0.61976466    -0.08700
C2511       C  0.66310626  0.72332067  0.58481792     0.30200
C2512       C  0.68407707  0.70171023  0.58603494    -0.20600
C2513       C  0.68991785  0.68694744  0.62210493    -0.08700
C2514       C  0.67400431  0.69396975  0.65701801     0.30200
F2515       F  0.67829863  0.67965097  0.69220460    -0.24400
H2516       H  0.64113590  0.72102771  0.68283305     0.18600
H2517       H  0.69600415  0.69678959  0.55877436     0.18600
F2518       F  0.65842835  0.73764895  0.54978623    -0.19200
C2519       C  0.84669704  0.71917299  0.58711817    -0.20600
C2520       C  0.85548314  0.73173714  0.62362573    -0.08700
C2521       C  0.84263489  0.72236453  0.65978789     0.30200
C2522       C  0.82159271  0.70070173  0.65931573    -0.20600
C2523       C  0.81278154  0.68804223  0.62286515    -0.08700
C2524       C  0.82546118  0.69761955  0.58656992     0.30200
F2525       F  0.81745219  0.68626586  0.55051532    -0.19200
H2526       H  0.85615484  0.72625637  0.55889197     0.18600
H2527       H  0.81224722  0.69378405  0.68767871     0.18600
F2528       F  0.85087012  0.73348568  0.69579243    -0.19200
loop_ 
_geom_bond_atom_site_label_1 
_geom_bond_atom_site_label_2 
_geom_bond_distance 
_geom_bond_site_symmetry_2 
_ccdc_geom_bond_type 
N1            C6   1.360       .  A
N1            C5   1.362       .  A
N1           H33   1.028       .  S
N2            C9   1.354       .  A
N2           C10   1.353       .  A
N3            C8   1.364       .  A
N3            C7   1.361       .  A
N3           H34   1.034       .  S
N4           C11   1.355       .  A
N4           C12   1.355       .  A
C5           C13   1.387       .  A
C5           C21   1.436       .  A
C6           C22   1.438       .  A
C6           C14   1.389       .  A
C7           C15   1.383       .  A
C7           C24   1.430       .  A
C8           C23   1.440       .  A
C8           C16   1.389       .  A
C9           C21   1.419       .  A
C9           C17   1.387       .  A
C10          C24   1.416       .  A
C10          C18   1.386       .  A
C11          C19   1.386       .  A
C11          C22   1.421       .  A
C12          C20   1.387       .  A
C12          C23   1.423       .  A
C13          C14   1.364       .  A
C13          H25   1.081       .  S
C14          H26   1.080       .  S
C15          C16   1.361       .  A
C15          H27   1.082       .  S
C16          H28   1.074       .  S
C17          C18   1.374       .  A
C17          H29   1.082       .  S
C18          H30   1.082       .  S
C19          C20   1.370       .  A
C19          H31   1.081       .  S
C20          H32   1.081       .  S
C21         C166   1.507       .  S
C22         C304   1.506       .  S
C23         C211   1.515       .  S
C24         C105   1.506       .  S
N35          C40   1.362       .  A
N35          C39   1.361       .  A
N35          H67   1.030       .  S
N36          C43   1.353       .  A
N36          C44   1.352       .  A
N37          C42   1.360       .  A
N37          C41   1.361       .  A
N37          H68   1.030       .  S
N38          C45   1.352       .  A
N38          C46   1.352       .  A
C39          C47   1.386       .  A
C39          C55   1.434       .  A
C40          C56   1.437       .  A
C40          C48   1.385       .  A
C41          C49   1.389       .  A
C41          C58   1.437       .  A
C42          C57   1.431       .  A
C42          C50   1.385       .  A
C43          C55   1.417       .  A
C43          C51   1.386       .  A
C44          C58   1.419       .  A
C44          C52   1.388       .  A
C45          C53   1.388       .  A
C45          C56   1.417       .  A
C46          C54   1.385       .  A
C46          C57   1.414       .  A
C47          C48   1.364       .  A
C47          H59   1.081       .  S
C48          H60   1.077       .  S
C49          C50   1.362       .  A
C49          H61   1.077       .  S
C50          H62   1.081       .  S
C51          C52   1.372       .  A
C51          H63   1.082       .  S
C52          H64   1.082       .  S
C53          C54   1.369       .  A
C53          H65   1.082       .  S
C54          H66   1.082       .  S
C55         C157   1.504       .  S
C56         C297   1.507       .  S
C57         C218   1.501       .  S
C58         C116   1.504       .  S
N69          C74   1.362       .  A
N69          C73   1.361       .  A
N69         H101   1.033       .  S
N70          C78   1.353       .  A
N70        C1341   1.355       .  A
N71          C76   1.362       .  A
N71          C75   1.362       .  A
N71         H102   1.033       .  S
N72          C80   1.354       .  A
N72        C1343   1.354       .  A
C73          C81   1.386       .  A
C73          C89   1.431       .  A
C74          C90   1.435       .  A
C74          C82   1.386       .  A
C75          C83   1.390       .  A
C75          C92   1.437       .  A
C76          C91   1.432       .  A
C76          C84   1.386       .  A
C77        N1334   1.355   1_455  A
C77          C89   1.420       .  A
C77          C85   1.385       .  A
C78          C92   1.421       .  A
C78          C86   1.388       .  A
C79        N1336   1.354       .  A
C79          C87   1.387       .  A
C79          C90   1.419       .  A
C80          C88   1.385       .  A
C80          C91   1.418       .  A
C81          C82   1.359       .  A
C81          H93   1.081       .  S
C82          H94   1.077       .  S
C83          C84   1.362       .  A
C83          H95   1.079       .  S
C84          H96   1.082       .  S
C85        C1350   1.373   1_455  A
C85          H97   1.082       .  S
C86        C1349   1.370       .  A
C86          H98   1.081       .  S
C87        C1352   1.372   1_455  A
C87          H99   1.082       .  S
C88        C1351   1.374       .  A
C88         H100   1.082       .  S
C89         C114   1.507       .  S
C90         C412   1.508       .  S
C91         C403   1.506       .  S
C92         C107   1.504       .  S
C103        C104   1.397       .  A
C103        C108   1.396       .  A
C103        C624   1.477       .  S
C104        C105   1.407       .  A
C104        H109   1.084       .  S
C105        C106   1.415       .  A
C106        C107   1.416       .  A
C106        H110   1.083       .  S
C107        C108   1.403       .  A
C108        H111   1.084       .  S
C112        C113   1.398       .  A
C112        C117   1.397       .  A
C112        C614   1.477       .  S
C113        C114   1.408       .  A
C113        H118   1.084       .  S
C114        C115   1.414       .  A
C115        C116   1.415       .  A
C115        H119   1.083       .  S
C116        C117   1.404       .  A
C117        H120   1.084       .  S
N121        C126   1.362       .  A
N121        C757   1.362       .  A
N121        H153   1.032       .  S
N122        C130   1.353   1_655  A
N122       C1393   1.352       .  A
N123        C128   1.363       .  A
N123        C759   1.360       .  A
N123        H154   1.032       .  S
N124        C132   1.353       .  A
N124       C1395   1.353   1_455  A
C125        N753   1.361   1_545  A
C125        C133   1.386       .  A
C125        C141   1.432       .  A
C126        C142   1.433       .  A
C126        C134   1.385       .  A
C127        N755   1.359       .  A
C127        C135   1.387       .  A
C127        C144   1.434       .  A
C128        C143   1.438       .  A
C128        C136   1.389       .  A
C129       N1386   1.353       .  A
C129        C141   1.415       .  A
C129        C137   1.385       .  A
C130        C144   1.420       .  A
C130        C138   1.388       .  A
C131       N1388   1.354       .  A
C131        C139   1.385       .  A
C131        C142   1.417       .  A
C132        C140   1.387       .  A
C132        C143   1.419       .  A
C133        C766   1.360   1_545  A
C133        H145   1.079       .  S
C134        C765   1.363       .  A
C134        H146   1.080       .  S
C135        C768   1.361   1_545  A
C135        H147   1.078       .  S
C136        C767   1.363       .  A
C136        H148   1.078       .  S
C137       C1402   1.371       .  A
C137        H149   1.082       .  S
C138       C1401   1.373   1_455  A
C138        H150   1.082       .  S
C139       C1404   1.372       .  A
C139        H151   1.082       .  S
C140       C1403   1.371   1_455  A
C140        H152   1.082       .  S
C141        C394   1.505       .  S
C142        C168   1.507       .  S
C143        C159   1.509       .  S
C144        C385   1.503       .  S
C155        C160   1.397   1_565  A
C155        C788   1.399       .  A
C155        C607   1.480   1_565  S
C156        C157   1.402       .  A
C156        C787   1.392       .  A
C156        H161   1.085       .  S
C157        C158   1.418       .  A
C158        C159   1.420       .  A
C158        H162   1.083       .  S
C159        C792   1.404       .  A
C160        C791   1.406   1_545  A
C160        H163   1.084       .  S
C164        C169   1.397   1_565  A
C164        C797   1.396       .  A
C164        C594   1.474   1_565  S
C165        C166   1.403       .  A
C165        C796   1.395       .  A
C165        H170   1.085       .  S
C166        C167   1.419       .  A
C167        C168   1.419       .  A
C167        H171   1.083       .  S
C168        C801   1.404       .  A
C169        C800   1.404   1_545  A
C169        H172   1.084       .  S
N173        C178   1.361       .  A
N173        C177   1.361   1_556  A
N173        H205   1.031       .  S
N174        C181   1.353       .  A
N174        C182   1.353       .  A
N175        C180   1.361   1_554  A
N175        C179   1.361       .  A
N175        H206   1.031       .  S
N176        C183   1.355       .  A
N176        C184   1.354       .  A
C177        C185   1.389       .  A
C177        C193   1.436       .  A
C178        C194   1.434       .  A
C178        C186   1.387       .  A
C179        C187   1.387       .  A
C179        C196   1.434       .  A
C180        C195   1.438       .  A
C180        C188   1.389       .  A
C181        C193   1.419       .  A
C181        C189   1.388       .  A
C182        C196   1.416       .  A
C182        C190   1.386       .  A
C183        C191   1.385       .  A
C183        C194   1.419       .  A
C184        C192   1.388       .  A
C184        C195   1.422       .  A
C185        C186   1.362   1_554  A
C185        H197   1.079       .  S
C186        H198   1.081       .  S
C187        C188   1.363   1_554  A
C187        H199   1.081       .  S
C188        H200   1.079       .  S
C189        C190   1.369       .  A
C189        H201   1.081       .  S
C190        H202   1.082       .  S
C191        C192   1.370       .  A
C191        H203   1.081       .  S
C192        H204   1.081       .  S
C193        C365   1.504       .  S
C194        C209   1.509       .  S
C195        C220   1.507       .  S
C196        C374   1.503       .  S
C207        C208   1.392       .  A
C207        C212   1.396       .  A
C207        C584   1.470       .  S
C208        C209   1.404       .  A
C208        H213   1.085       .  S
C209        C210   1.419       .  A
C210        C211   1.421       .  A
C210        H214   1.082       .  S
C211        C212   1.407       .  A
C212        H215   1.084       .  S
C216        C217   1.395       .  A
C216        C221   1.397       .  A
C216        C574   1.473       .  S
C217        C218   1.402       .  A
C217        H222   1.084       .  S
C218        C219   1.416       .  A
C219        C220   1.416       .  A
C219        H223   1.083       .  S
C220        C221   1.403       .  A
C221        H224   1.084       .  S
N225        C230   1.362       .  A
N225        C229   1.363       .  A
N225        H257   1.034       .  S
N226        C233   1.353       .  A
N226        C234   1.353       .  A
N227        C232   1.362       .  A
N227        C231   1.362       .  A
N227        H258   1.030       .  S
N228        C235   1.353       .  A
N228        C236   1.354       .  A
C229        C237   1.385       .  A
C229        C245   1.433       .  A
C230        C246   1.438       .  A
C230        C238   1.388       .  A
C231        C239   1.385       .  A
C231        C248   1.435       .  A
C232        C247   1.433       .  A
C232        C240   1.384       .  A
C233        C245   1.416       .  A
C233        C241   1.386       .  A
C234        C248   1.419       .  A
C234        C242   1.387       .  A
C235        C243   1.388       .  A
C235        C246   1.420       .  A
C236        C244   1.385       .  A
C236        C247   1.419       .  A
C237        C238   1.361       .  A
C237        H249   1.081       .  S
C238        H250   1.077       .  S
C239        C240   1.359       .  A
C239        H251   1.077       .  S
C240        H252   1.078       .  S
C241        C242   1.373       .  A
C241        H253   1.082       .  S
C242        H254   1.082       .  S
C243        C244   1.372       .  A
C243        H255   1.082       .  S
C244        H256   1.082       .  S
C245        C358   1.507       .  S
C246        C392   1.505       .  S
C247        C401   1.510       .  S
C248        C367   1.507       .  S
N259        C264   1.363   1_554  A
N259        C895   1.361       .  A
N259        H291   1.030       .  S
N260        C267   1.352       .  A
N260        C268   1.353       .  A
N261        C266   1.362   1_554  A
N261        C897   1.363       .  A
N261        H292   1.033       .  S
N262        C269   1.354       .  A
N262        C270   1.354       .  A
C263        N891   1.362   1_545  A
C263        C271   1.387       .  A
C263        C279   1.435       .  A
C264        C280   1.437       .  A
C264        C272   1.388       .  A
C265        N893   1.363   1_544  A
C265        C273   1.388   1_545  A
C265        C282   1.436       .  A
C266        C281   1.433       .  A
C266        C274   1.385       .  A
C267        C279   1.417       .  A
C267        C275   1.386       .  A
C268        C282   1.418       .  A
C268        C276   1.387       .  A
C269        C277   1.388       .  A
C269        C280   1.421       .  A
C270        C278   1.385       .  A
C270        C281   1.417       .  A
C271        C904   1.361   1_544  A
C271        H283   1.080       .  S
C272        C903   1.362   1_556  A
C272        H284   1.080       .  S
C273        C906   1.361   1_554  A
C273        H285   1.078   1_565  S
C274        C905   1.362   1_556  A
C274        H286   1.081       .  S
C275        C276   1.370       .  A
C275        H287   1.082       .  S
C276        H288   1.082       .  S
C277        C278   1.372       .  A
C277        H289   1.081       .  S
C278        H290   1.082       .  S
C279        C349   1.505       .  S
C280        C295   1.508       .  S
C281        C306   1.507       .  S
C282        C356   1.507       .  S
C293        C294   1.398       .  A
C293        C930   1.397       .  A
C293        C567   1.478   1_565  S
C294        C927   1.406       .  A
C294        H299   1.084   1_565  S
C295        C296   1.416       .  A
C295        C926   1.406       .  A
C296        C297   1.416       .  A
C296        H300   1.083       .  S
C297        C298   1.402       .  A
C298        C925   1.398       .  A
C298        H301   1.084       .  S
C302        C307   1.396   1_565  A
C302        C935   1.398       .  A
C302        C554   1.477   1_565  S
C303        C304   1.402       .  A
C303        C934   1.398       .  A
C303        H308   1.084       .  S
C304        C305   1.417       .  A
C305        C306   1.416       .  A
C305        H309   1.083       .  S
C306        C939   1.405       .  A
C307        C938   1.406   1_545  A
C307        H310   1.084       .  S
N311        C316   1.359       .  A
N311        C315   1.362       .  A
N311        H343   1.030       .  S
N312        C319   1.355       .  A
N312        C320   1.353       .  A
N313        C318   1.362       .  A
N313        C317   1.360       .  A
N313        H344   1.030       .  S
N314        C321   1.352       .  A
N314        C322   1.354       .  A
C315        C323   1.385       .  A
C315        C331   1.432       .  A
C316        C332   1.436       .  A
C316        C324   1.390       .  A
C317        C325   1.387       .  A
C317        C334   1.437       .  A
C318        C333   1.433       .  A
C318        C326   1.386       .  A
C319        C331   1.417       .  A
C319        C327   1.385       .  A
C320        C334   1.421       .  A
C320        C328   1.388       .  A
C321        C329   1.388       .  A
C321        C332   1.420       .  A
C322        C330   1.385       .  A
C322        C333   1.418       .  A
C323        C324   1.361       .  A
C323        H335   1.080       .  S
C324        H336   1.079       .  S
C325        C326   1.362       .  A
C325        H337   1.079       .  S
C326        H338   1.080       .  S
C327        C328   1.371       .  A
C327        H339   1.082       .  S
C328        H340   1.081       .  S
C329        C330   1.372       .  A
C329        H341   1.082       .  S
C330        H342   1.082       .  S
C331        C347   1.508       .  S
C332        C383   1.498       .  S
C333        C410   1.508       .  S
C334        C376   1.504       .  S
C345        C350   1.399       .  A
C345        C978   1.396       .  A
C345        C544   1.475       .  S
C346        C347   1.404       .  A
C346        C977   1.395   1_545  A
C346        H351   1.084       .  S
C347        C348   1.418       .  A
C348        C349   1.419       .  A
C348        H352   1.083       .  S
C349        C982   1.401   1_545  A
C350        C981   1.404       .  A
C350        H353   1.084       .  S
C354        C355   1.396       .  A
C354        C991   1.395       .  A
C354        C534   1.474       .  S
C355        C988   1.403       .  A
C355        H360   1.084       .  S
C356        C357   1.418       .  A
C356        C987   1.403   1_545  A
C357        C358   1.419       .  A
C357        H361   1.083       .  S
C358        C359   1.404       .  A
C359        C986   1.393   1_545  A
C359        H362   1.085       .  S
C363        C364   1.394       .  A
C363        C368   1.397       .  A
C363        C524   1.473       .  S
C364        C365   1.404       .  A
C364        H369   1.085       .  S
C365        C366   1.416       .  A
C366        C367   1.414       .  A
C366        H370   1.083       .  S
C367        C368   1.407       .  A
C368        H371   1.084       .  S
C372        C373   1.395       .  A
C372        C377   1.397       .  A
C372        C514   1.474       .  S
C373        C374   1.401       .  A
C373        H378   1.084       .  S
C374        C375   1.415       .  A
C375        C376   1.415       .  A
C375        H379   1.083       .  S
C376        C377   1.405       .  A
C377        H380   1.084       .  S
C381        C386   1.398       .  A
C381       C1014   1.396       .  A
C381        C507   1.478       .  S
C382        C383   1.402       .  A
C382       C1013   1.391       .  A
C382        H387   1.085       .  S
C383        C384   1.413       .  A
C384        C385   1.414       .  A
C384        H388   1.083       .  S
C385       C1018   1.407   1_545  A
C386       C1017   1.404       .  A
C386        H389   1.084       .  S
C390        C395   1.398       .  A
C390       C1023   1.396       .  A
C390        C494   1.475       .  S
C391        C392   1.402       .  A
C391       C1022   1.393       .  A
C391        H396   1.085       .  S
C392        C393   1.417       .  A
C393        C394   1.418       .  A
C393        H397   1.083       .  S
C394       C1027   1.403   1_545  A
C395       C1026   1.403       .  A
C395        H398   1.084       .  S
C399        C400   1.397       .  A
C399        C404   1.395       .  A
C399        C487   1.475       .  S
C400        C401   1.408       .  A
C400        H405   1.084       .  S
C401        C402   1.418       .  A
C402        C403   1.417       .  A
C402        H406   1.083       .  S
C403        C404   1.404       .  A
C404        H407   1.085       .  S
C408        C409   1.397       .  A
C408        C413   1.397       .  A
C408        C477   1.475       .  S
C409        C410   1.405       .  A
C409        H414   1.084       .  S
C410        C411   1.418       .  A
C411        C412   1.417       .  A
C411        H415   1.083       .  S
C412        C413   1.405       .  A
C413        H416   1.084       .  S
O417        V425   1.890       .  S
O417        C427   1.263       .  A
O418       V1689   1.890       .  S
O418        C428   1.263       .  A
O419        V425   1.894       .  S
O419        C429   1.263       .  A
O420       V1689   1.886       .  S
O420        C430   1.262       .  A
O421       V1690   1.892   1_455  S
O421        C430   1.264       .  A
O422        V426   1.895       .  S
O422        C429   1.265       .  A
O423       V1690   1.890   1_455  S
O423        C428   1.263       .  A
O424        V426   1.892       .  S
O424        C427   1.263       .  A
V425       O1682   1.892       .  S
V425       O1684   1.891       .  S
V425        V426   2.086       .  T
V426       O1685   1.897       .  S
V426       O1687   1.887       .  S
C427        C537   1.472       .  S
C428        C517   1.471       .  S
C429        C527   1.477       .  S
C430        C547   1.468       .  S
O431        V439   1.895       .  S
O431        C441   1.263       .  A
O432        V439   1.897       .  S
O432        C442   1.264       .  A
O433        V439   1.898       .  S
O433        C443   1.264       .  A
O434        V439   1.897       .  S
O434        C444   1.265       .  A
O435        V440   1.892       .  S
O435        C444   1.263       .  A
O436        V440   1.891       .  S
O436        C443   1.263       .  A
O437        V440   1.884       .  S
O437        C442   1.262       .  A
O438        V440   1.882       .  S
O438        C441   1.261       .  A
V439        V440   2.087       .  T
C441        C497   1.466       .  S
C442        C474   1.472       .  S
C443        C504   1.475       .  S
C444        C484   1.478       .  S
O445        V453   1.895       .  S
O445        C455   1.263       .  A
O446        V453   1.892       .  S
O446        C456   1.263       .  A
O447        V453   1.892       .  S
O447        C457   1.264       .  A
O448        V453   1.896       .  S
O448        C458   1.264       .  A
O449        V454   1.891       .  S
O449        C458   1.263       .  A
O450        V454   1.891       .  S
O450        C457   1.262       .  A
O451        V454   1.900       .  S
O451        C456   1.265       .  A
O452        V454   1.896       .  S
O452        C455   1.265       .  A
V453        V454   2.086       .  T
C455        C604   1.478       .  S
C456        C627   1.479       .  S
C457        C597   1.472       .  S
C458        C617   1.476       .  S
O459       V1731   1.895   1_455  S
O459        C469   1.265       .  A
O460        V467   1.895       .  S
O460        C470   1.264       .  A
O461       V1731   1.890   1_455  S
O461        C471   1.263       .  A
O462        V467   1.886       .  S
O462        C472   1.262       .  A
O463        V468   1.902       .  S
O463        C472   1.266       .  A
O464       V1732   1.891   1_455  S
O464        C471   1.263       .  A
O465        V468   1.898       .  S
O465        C470   1.264       .  A
O466       V1732   1.897   1_455  S
O466        C469   1.264       .  A
V467       O1723   1.893       .  S
V467       O1725   1.889       .  S
V467        V468   2.086       .  T
V468       O1728   1.899       .  S
V468       O1730   1.899       .  S
C469        C564   1.479       .  S
C470        C587   1.478       .  S
C471        C577   1.472       .  S
C472        C557   1.477       .  S
C473        C474   1.404       .  A
C473        C478   1.390       .  A
C473        H480   1.083       .  S
C474        C475   1.407       .  A
C475        C476   1.397       .  A
C475        F482   1.357       .  S
C476        C477   1.404       .  A
C476        H481   1.083       .  S
C477        C478   1.405       .  A
C478        F479   1.354       .  S
C483        C484   1.405       .  A
C483        C488   1.395       .  A
C483        H490   1.083       .  S
C484        C485   1.410       .  A
C485        C486   1.396       .  A
C485        F492   1.357       .  S
C486        C487   1.401       .  A
C486        H491   1.084       .  S
C487        C488   1.405       .  A
C488        F489   1.355       .  S
C493        C494   1.407       .  A
C493        C498   1.393       .  A
C493        H500   1.081       .  S
C494        C495   1.405       .  A
C495        C496   1.390       .  A
C495       F1134   1.356       .  S
C496        C497   1.403       .  A
C496        H501   1.083       .  S
C497        C498   1.404       .  A
C498        F499   1.358       .  S
F502       C1127   1.357       .  S
C503        C504   1.405       .  A
C503        C508   1.393       .  A
C503        H510   1.083       .  S
C504        C505   1.408       .  A
C505        C506   1.396       .  A
C505        F512   1.358       .  S
C506        C507   1.406       .  A
C506        H511   1.083       .  S
C507        C508   1.405       .  A
C508       F1141   1.357       .  S
F509       C1140   1.356       .  S
C513        C514   1.403       .  A
C513        C518   1.392       .  A
C513        H520   1.083       .  S
C514        C515   1.406       .  A
C515        C516   1.392       .  A
C515        F522   1.355       .  S
C516        C517   1.404       .  A
C516        H521   1.083       .  S
C517        C518   1.407       .  A
C518        F519   1.357       .  S
C523        C524   1.402       .  A
C523        C528   1.397       .  A
C523        H530   1.083       .  S
C524        C525   1.403       .  A
C525        C526   1.393       .  A
C525        F532   1.355       .  S
C526        C527   1.405       .  A
C526        H531   1.083       .  S
C527        C528   1.410       .  A
C528        F529   1.357       .  S
C533        C534   1.401       .  A
C533        C538   1.391       .  A
C533       H1172   1.081       .  S
C534        C535   1.405       .  A
C535        C536   1.396       .  A
C535        F542   1.357       .  S
C536        C537   1.406       .  A
C536        H541   1.083       .  S
C537        C538   1.407       .  A
C538        F539   1.357       .  S
H540       C1165   1.082       .  S
C543        C544   1.402       .  A
C543        C548   1.392       .  A
C543        H550   1.083       .  S
C544        C545   1.408       .  A
C545        C546   1.393       .  A
C545        F552   1.355       .  S
C546        C547   1.402       .  A
C546        H551   1.083       .  S
C547        C548   1.406       .  A
C548        F549   1.357       .  S
C553        C554   1.401       .  A
C553        C558   1.393       .  A
C553        H560   1.082       .  S
C554        C555   1.407       .  A
C555        C556   1.398       .  A
C555       F1194   1.357       .  S
C556        C557   1.405       .  A
C556        H561   1.083       .  S
C557        C558   1.410       .  A
C558        F559   1.358       .  S
F562       C1187   1.357       .  S
C563        C564   1.405       .  A
C563        C568   1.395       .  A
C563        H570   1.083       .  S
C564        C565   1.409       .  A
C565        C566   1.397       .  A
C565        F572   1.357       .  S
C566        C567   1.403       .  A
C566       H1203   1.083       .  S
C567        C568   1.405       .  A
C568        F569   1.356       .  S
H571       C1198   1.083       .  S
C573        C574   1.403       .  A
C573        C578   1.392       .  A
C573        H580   1.082       .  S
C574        C575   1.405       .  A
C575        C576   1.394       .  A
C575        F582   1.357       .  S
C576        C577   1.405       .  A
C576        H581   1.083       .  S
C577        C578   1.407       .  A
C578        F579   1.357       .  S
C583        C584   1.401       .  A
C583        C588   1.397       .  A
C583        H590   1.083       .  S
C584        C585   1.402       .  A
C585        C586   1.395       .  A
C585        F592   1.356       .  S
C586        C587   1.406       .  A
C586        H591   1.083       .  S
C587        C588   1.410       .  A
C588        F589   1.357       .  S
C593        C594   1.403       .  A
C593        C598   1.396       .  A
C593        H600   1.084       .  S
C594        C595   1.405       .  A
C595        C596   1.390       .  A
C595       F1234   1.354       .  S
C596        C597   1.402       .  A
C596        H601   1.083       .  S
C597        C598   1.409       .  A
C598        F599   1.357       .  S
F602       C1227   1.355       .  S
C603        C604   1.403       .  A
C603        C608   1.393       .  A
C603        H610   1.083       .  S
C604        C605   1.410       .  A
C605        C606   1.398       .  A
C605        F612   1.358       .  S
C606        C607   1.404       .  A
C606       H1243   1.083       .  S
C607        C608   1.405       .  A
C608        F609   1.354       .  S
H611       C1238   1.082       .  S
C613        C614   1.402       .  A
C613        C618   1.393       .  A
C613        H620   1.082       .  S
C614        C615   1.406       .  A
C615        C616   1.397       .  A
C615        F622   1.356       .  S
C616        C617   1.406       .  A
C616        H621   1.083       .  S
C617        C618   1.408       .  A
C618        F619   1.358       .  S
C623        C624   1.402       .  A
C623        C628   1.393       .  A
C623        H630   1.082       .  S
C624        C625   1.406       .  A
C625        C626   1.398       .  A
C625        F632   1.357       .  S
C626        C627   1.407       .  A
C626        H631   1.083       .  S
C627        C628   1.409       .  A
C628        F629   1.357       .  S
N633        C638   1.362       .  A
N633        C637   1.359       .  A
N633        H665   1.034       .  S
N634        C641   1.352       .  A
N634        C642   1.353       .  A
N635        C640   1.361       .  A
N635        C639   1.363       .  A
N635        H666   1.033       .  S
N636        C643   1.354       .  A
N636        C644   1.354       .  A
C637        C645   1.387       .  A
C637        C653   1.429       .  A
C638        C654   1.434       .  A
C638        C646   1.389       .  A
C639        C647   1.385       .  A
C639        C656   1.436       .  A
C640        C655   1.433       .  A
C640        C648   1.385       .  A
C641        C653   1.416       .  A
C641        C649   1.386       .  A
C642        C656   1.417       .  A
C642        C650   1.387       .  A
C643        C651   1.387       .  A
C643        C654   1.420       .  A
C644        C652   1.386       .  A
C644        C655   1.419       .  A
C645        C646   1.360       .  A
C645        H657   1.081       .  S
C646        H658   1.078       .  S
C647        C648   1.361       .  A
C647        H659   1.078       .  S
C648        H660   1.080       .  S
C649        C650   1.370       .  A
C649        H661   1.082       .  S
C650        H662   1.082       .  S
C651        C652   1.371       .  A
C651        H663   1.082       .  S
C652        H664   1.081       .  S
C653        C798   1.498       .  S
C654        C936   1.506       .  S
C655        C843   1.508       .  S
C656        C737   1.508       .  S
N667        C672   1.361       .  A
N667        C671   1.363       .  A
N667        H699   1.033       .  S
N668        C675   1.353       .  A
N668        C676   1.352       .  A
N669        C674   1.363       .  A
N669        C673   1.360       .  A
N669        H700   1.032       .  S
N670        C677   1.353       .  A
N670        C678   1.353       .  A
C671        C679   1.386       .  A
C671        C687   1.435       .  A
C672        C688   1.432       .  A
C672        C680   1.385       .  A
C673        C681   1.387       .  A
C673        C690   1.434       .  A
C674        C689   1.436       .  A
C674        C682   1.387       .  A
C675        C687   1.419       .  A
C675        C683   1.387       .  A
C676        C690   1.417       .  A
C676        C684   1.386       .  A
C677        C685   1.385       .  A
C677        C688   1.417       .  A
C678        C686   1.387       .  A
C678        C689   1.419       .  A
C679        C680   1.361       .  A
C679        H691   1.077       .  S
C680        H692   1.080       .  S
C681        C682   1.362       .  A
C681        H693   1.081       .  S
C682        H694   1.078       .  S
C683        C684   1.372       .  A
C683        H695   1.082       .  S
C684        H696   1.082       .  S
C685        C686   1.371       .  A
C685        H697   1.082       .  S
C686        H698   1.082       .  S
C687        C789   1.507       .  S
C688        C929   1.506       .  S
C689        C850   1.507       .  S
C690        C748   1.501       .  S
N701        C706   1.360       .  A
N701        C705   1.361       .  A
N701        H733   1.031       .  S
N702       C1973   1.354       .  A
N702        C710   1.355       .  A
N703        C708   1.362       .  A
N703        C707   1.361       .  A
N703        H734   1.033       .  S
N704       C1975   1.354       .  A
N704        C712   1.353       .  A
C705        C713   1.387       .  A
C705        C721   1.435       .  A
C706        C722   1.431       .  A
C706        C714   1.385       .  A
C707        C715   1.386       .  A
C707        C724   1.430       .  A
C708        C723   1.437       .  A
C708        C716   1.390       .  A
C709       N1966   1.354       .  A
C709        C721   1.421       .  A
C709        C717   1.387       .  A
C710        C724   1.417       .  A
C710        C718   1.384       .  A
C711       N1968   1.354   1_455  A
C711        C719   1.385       .  A
C711        C722   1.417       .  A
C712        C720   1.388       .  A
C712        C723   1.420       .  A
C713        C714   1.359       .  A
C713        H725   1.077       .  S
C714        H726   1.080       .  S
C715        C716   1.361       .  A
C715        H727   1.082       .  S
C716        H728   1.079       .  S
C717       C1982   1.372   1_455  A
C717        H729   1.082       .  S
C718       C1981   1.371       .  A
C718        H730   1.082       .  S
C719       C1984   1.370   1_455  A
C719        H731   1.081       .  S
C720       C1983   1.371       .  A
C720        H732   1.081       .  S
C721        C746   1.508       .  S
C722       C1044   1.505       .  S
C723       C1035   1.503       .  S
C724        C739   1.507       .  S
C735        C736   1.399       .  A
C735        C740   1.399       .  A
C735       C1256   1.484       .  S
C736        C737   1.405       .  A
C736        H741   1.084       .  S
C737        C738   1.416       .  A
C738        C739   1.416       .  A
C738        H742   1.083       .  S
C739        C740   1.406       .  A
C740        H743   1.084       .  S
C744        C745   1.399       .  A
C744        C749   1.396       .  A
C744       C1246   1.476       .  S
C745        C746   1.408       .  A
C745        H750   1.084       .  S
C746        C747   1.414       .  A
C747        C748   1.414       .  A
C747        H751   1.083       .  S
C748        C749   1.402       .  A
C749        H752   1.085       .  S
N753        C758   1.359       .  A
N753        H785   1.030       .  S
N754       C2025   1.353       .  A
N754        C762   1.352   1_655  A
N755        C760   1.359   1_545  A
N755        H786   1.028       .  S
N756       C2027   1.353       .  A
N756        C764   1.355   1_655  A
C757        C765   1.388       .  A
C757        C773   1.436       .  A
C758        C774   1.433       .  A
C758        C766   1.385       .  A
C759        C767   1.385       .  A
C759        C776   1.430       .  A
C760        C775   1.432       .  A
C760        C768   1.387       .  A
C761       N2018   1.351       .  A
C761        C773   1.416       .  A
C761        C769   1.388       .  A
C762        C776   1.416       .  A
C762        C770   1.386       .  A
C763       N2020   1.351       .  A
C763        C771   1.387       .  A
C763        C774   1.416       .  A
C764        C772   1.386       .  A
C764        C775   1.420       .  A
C765        H777   1.079       .  S
C766        H778   1.078       .  S
C767        H779   1.081       .  S
C768        H780   1.080       .  S
C769       C2034   1.370       .  A
C769        H781   1.082       .  S
C770       C2033   1.370   1_455  A
C770        H782   1.082       .  S
C771       C2036   1.369       .  A
C771        H783   1.082       .  S
C772       C2035   1.371   1_455  A
C772        H784   1.082       .  S
C773       C1026   1.502       .  S
C774        C800   1.499       .  S
C775        C791   1.504       .  S
C776       C1017   1.499       .  S
C787        C792   1.396       .  A
C787       C1239   1.469       .  S
C788        C789   1.407       .  A
C788        H793   1.084       .  S
C789        C790   1.414       .  A
C790        C791   1.415       .  A
C790        H794   1.083       .  S
C792        H795   1.084       .  S
C796        C801   1.396       .  A
C796       C1226   1.473       .  S
C797        C798   1.404       .  A
C797        H802   1.084       .  S
C798        C799   1.411       .  A
C799        C800   1.410       .  A
C799        H803   1.083       .  S
C801        H804   1.084       .  S
N805        C810   1.362   1_554  A
N805        C809   1.362       .  A
N805        H837   1.032       .  S
N806        C813   1.352       .  A
N806        C814   1.352       .  A
N807        C812   1.361       .  A
N807        C811   1.361   1_556  A
N807        H838   1.032       .  S
N808        C815   1.353       .  A
N808        C816   1.355       .  A
C809        C817   1.387       .  A
C809        C825   1.434       .  A
C810        C826   1.437       .  A
C810        C818   1.389       .  A
C811        C819   1.389       .  A
C811        C828   1.436       .  A
C812        C827   1.431       .  A
C812        C820   1.386       .  A
C813        C825   1.413       .  A
C813        C821   1.385       .  A
C814        C828   1.417       .  A
C814        C822   1.388       .  A
C815        C823   1.388       .  A
C815        C826   1.421       .  A
C816        C824   1.385       .  A
C816        C827   1.417       .  A
C817        C818   1.363   1_554  A
C817        H829   1.081       .  S
C818        H830   1.080       .  S
C819        C820   1.361   1_554  A
C819        H831   1.079       .  S
C820        H832   1.081       .  S
C821        C822   1.370       .  A
C821        H833   1.082       .  S
C822        H834   1.082       .  S
C823        C824   1.371       .  A
C823        H835   1.081       .  S
C824        H836   1.082       .  S
C825        C997   1.502       .  S
C826        C841   1.505       .  S
C827        C852   1.506       .  S
C828       C1006   1.502       .  S
C839        C840   1.395       .  A
C839        C844   1.396       .  A
C839       C1216   1.474       .  S
C840        C841   1.405       .  A
C840        H845   1.084       .  S
C841        C842   1.415       .  A
C842        C843   1.416       .  A
C842        H846   1.083       .  S
C843        C844   1.408       .  A
C844        H847   1.084       .  S
C848        C849   1.397       .  A
C848        C853   1.396       .  A
C848       C1206   1.477       .  S
C849        C850   1.404       .  A
C849        H854   1.084       .  S
C850        C851   1.417       .  A
C851        C852   1.416       .  A
C851        H855   1.083       .  S
C852        C853   1.405       .  A
C853        H856   1.084       .  S
N857        C862   1.362       .  A
N857        C861   1.363       .  A
N857        H889   1.034       .  S
N858        C865   1.354       .  A
N858        C866   1.353       .  A
N859        C864   1.363       .  A
N859        C863   1.363       .  A
N859        H890   1.033       .  S
N860        C867   1.351       .  A
N860        C868   1.352       .  A
C861        C869   1.385       .  A
C861        C877   1.432       .  A
C862        C878   1.437       .  A
C862        C870   1.388       .  A
C863        C871   1.386       .  A
C863        C880   1.438       .  A
C864        C879   1.433       .  A
C864        C872   1.383       .  A
C865        C877   1.416       .  A
C865        C873   1.385       .  A
C866        C880   1.419       .  A
C866        C874   1.388       .  A
C867        C875   1.388       .  A
C867        C878   1.416       .  A
C868        C876   1.385       .  A
C868        C879   1.414       .  A
C869        C870   1.360       .  A
C869        H881   1.081       .  S
C870        H882   1.079       .  S
C871        C872   1.359       .  A
C871        H883   1.078       .  S
C872        H884   1.079       .  S
C873        C874   1.373       .  A
C873        H885   1.082       .  S
C874        H886   1.082       .  S
C875        C876   1.369       .  A
C875        H887   1.081       .  S
C876        H888   1.082       .  S
C877        C990   1.509       .  S
C878       C1024   1.502       .  S
C879       C1033   1.508       .  S
C880        C999   1.508       .  S
N891        C896   1.364   1_554  A
N891        H923   1.032       .  S
N892        C899   1.354       .  A
N892        C900   1.354       .  A
N893        C898   1.360       .  A
N893        H924   1.034   1_565  S
N894        C901   1.354       .  A
N894        C902   1.353       .  A
C895        C903   1.388       .  A
C895        C911   1.435       .  A
C896        C912   1.437       .  A
C896        C904   1.388       .  A
C897        C905   1.388       .  A
C897        C914   1.439       .  A
C898        C913   1.430       .  A
C898        C906   1.386       .  A
C899        C911   1.420       .  A
C899        C907   1.386       .  A
C900        C914   1.421       .  A
C900        C908   1.387       .  A
C901        C909   1.388       .  A
C901        C912   1.420       .  A
C902        C910   1.386       .  A
C902        C913   1.417       .  A
C903        H915   1.080       .  S
C904        H916   1.080       .  S
C905        H917   1.077       .  S
C906        H918   1.082       .  S
C907        C908   1.372       .  A
C907        H919   1.082       .  S
C908        H920   1.082       .  S
C909        C910   1.373       .  A
C909        H921   1.082       .  S
C910        H922   1.082       .  S
C911        C981   1.503       .  S
C912        C927   1.509       .  S
C913        C938   1.502       .  S
C914        C988   1.509       .  S
C925        C926   1.399       .  A
C925       C1199   1.479       .  S
C926        H931   1.084       .  S
C927        C928   1.416       .  A
C928        C929   1.417       .  A
C928        H932   1.083       .  S
C929        C930   1.405       .  A
C930        H933   1.084       .  S
C934        C939   1.400       .  A
C934       C1186   1.482       .  S
C935        C936   1.405       .  A
C935        H940   1.084       .  S
C936        C937   1.414       .  A
C937        C938   1.414       .  A
C937        H941   1.083       .  S
C939        H942   1.083       .  S
N943        C948   1.360       .  A
N943        C947   1.359       .  A
N943        H975   1.032       .  S
N944        C951   1.352       .  A
N944        C952   1.353       .  A
N945        C950   1.361       .  A
N945        C949   1.361       .  A
N945        H976   1.032       .  S
N946        C953   1.352       .  A
N946        C954   1.351       .  A
C947        C955   1.387       .  A
C947        C963   1.433       .  A
C948        C964   1.428       .  A
C948        C956   1.386       .  A
C949        C957   1.386       .  A
C949        C966   1.432       .  A
C950        C965   1.436       .  A
C950        C958   1.389       .  A
C951        C963   1.418       .  A
C951        C959   1.387       .  A
C952        C966   1.416       .  A
C952        C960   1.386       .  A
C953        C961   1.385       .  A
C953        C964   1.413       .  A
C954        C962   1.388       .  A
C954        C965   1.417       .  A
C955        C956   1.359       .  A
C955        H967   1.079       .  S
C956        H968   1.081       .  S
C957        C958   1.362       .  A
C957        H969   1.081       .  S
C958        H970   1.080       .  S
C959        C960   1.372       .  A
C959        H971   1.082       .  S
C960        H972   1.082       .  S
C961        C962   1.370       .  A
C961        H973   1.082       .  S
C962        H974   1.082       .  S
C963        C979   1.501       .  S
C964       C1015   1.500       .  S
C965       C1042   1.498       .  S
C966       C1008   1.504       .  S
C977        C982   1.392       .  A
C977       C1176   1.468       .  S
C978        C979   1.405       .  A
C978        H983   1.084       .  S
C979        C980   1.413       .  A
C980        C981   1.414       .  A
C980        H984   1.083       .  S
C982        H985   1.085       .  S
C986        C987   1.394       .  A
C986       C1166   1.468       .  S
C987        H992   1.085       .  S
C988        C989   1.418       .  A
C989        C990   1.419       .  A
C989        H993   1.083       .  S
C990        C991   1.405       .  A
C991        H994   1.084       .  S
C995        C996   1.389       .  A
C995       C1000   1.393       .  A
C995       C1156   1.461       .  S
C996        C997   1.398       .  A
C996       H1001   1.085       .  S
C997        C998   1.420       .  A
C998        C999   1.419       .  A
C998       H1002   1.083       .  S
C999       C1000   1.405       .  A
C1000      H1003   1.085       .  S
C1004      C1005   1.395       .  A
C1004      C1009   1.398       .  A
C1004      C1146   1.475       .  S
C1005      C1006   1.402       .  A
C1005      H1010   1.084       .  S
C1006      C1007   1.415       .  A
C1007      C1008   1.415       .  A
C1007      H1011   1.083       .  S
C1008      C1009   1.404       .  A
C1009      H1012   1.084       .  S
C1013      C1018   1.396   1_545  A
C1013      C1139   1.466   1_545  S
C1014      C1015   1.403       .  A
C1014      H1019   1.084       .  S
C1015      C1016   1.412       .  A
C1016      C1017   1.413       .  A
C1016      H1020   1.083       .  S
C1018      H1021   1.084       .  S
C1022      C1027   1.392   1_545  A
C1022      C1126   1.464   1_545  S
C1023      C1024   1.400       .  A
C1023      H1028   1.084       .  S
C1024      C1025   1.413       .  A
C1025      C1026   1.415       .  A
C1025      H1029   1.083       .  S
C1027      H1030   1.085       .  S
C1031      C1032   1.398       .  A
C1031      C1036   1.396       .  A
C1031      C1119   1.475       .  S
C1032      C1033   1.405       .  A
C1032      H1037   1.084       .  S
C1033      C1034   1.416       .  A
C1034      C1035   1.414       .  A
C1034      H1038   1.083       .  S
C1035      C1036   1.403       .  A
C1036      H1039   1.084       .  S
C1040      C1041   1.394       .  A
C1040      C1045   1.398       .  A
C1040      C1109   1.473       .  S
C1041      C1042   1.401       .  A
C1041      H1046   1.085       .  S
C1042      C1043   1.413       .  A
C1043      C1044   1.414       .  A
C1043      H1047   1.083       .  S
C1044      C1045   1.406       .  A
C1045      H1048   1.084       .  S
O1049      V1057   1.886       .  S
O1049      C1059   1.262       .  A
O1050      V2321   1.897   1_455  S
O1050      C1060   1.264       .  A
O1051      V1057   1.892       .  S
O1051      C1061   1.263       .  A
O1052      V2321   1.894   1_455  S
O1052      C1062   1.264       .  A
O1053      V2322   1.884   1_455  S
O1053      C1062   1.262       .  A
O1054      V1058   1.881       .  S
O1054      C1061   1.261       .  A
O1055      V2322   1.884   1_455  S
O1055      C1060   1.262       .  A
O1056      V1058   1.894       .  S
O1056      C1059   1.264       .  A
V1057      O2314   1.889       .  S
V1057      O2316   1.895       .  S
V1057      V1058   2.087       .  T
V1058      O2317   1.885       .  S
V1058      O2319   1.891       .  S
C1059      C1169   1.473       .  S
C1060      C1149   1.470       .  S
C1061      C1159   1.466       .  S
C1062      C1179   1.471       .  S
O1063      V1071   1.887       .  S
O1063      C1073   1.263       .  A
O1064      V1071   1.892       .  S
O1064      C1074   1.263       .  A
O1065      V1071   1.896       .  S
O1065      C1075   1.264       .  A
O1066      V1071   1.891       .  S
O1066      C1076   1.264       .  A
O1067      V1072   1.890       .  S
O1067      C1076   1.262       .  A
O1068      V1072   1.888       .  S
O1068      C1075   1.263       .  A
O1069      V1072   1.889       .  S
O1069      C1074   1.263       .  A
O1070      V1072   1.887       .  S
O1070      C1073   1.262       .  A
V1071      V1072   2.087       .  T
C1073      C1129   1.468       .  S
C1074      C1106   1.472       .  S
C1075      C1136   1.473       .  S
C1076      C1116   1.470       .  S
O1077      V1085   1.886       .  S
O1077      C1087   1.262       .  A
O1078      V1085   1.890       .  S
O1078      C1088   1.261       .  A
O1079      V1085   1.889       .  S
O1079      C1089   1.264       .  A
O1080      V1085   1.895       .  S
O1080      C1090   1.264       .  A
O1081      V1086   1.890       .  S
O1081      C1090   1.262       .  A
O1082      V1086   1.891       .  S
O1082      C1089   1.262       .  A
O1083      V1086   1.895       .  S
O1083      C1088   1.266       .  A
O1084      V1086   1.898       .  S
O1084      C1087   1.265       .  A
V1085      V1086   2.087       .  T
C1087      C1236   1.474       .  S
C1088      C1259   1.474       .  S
C1089      C1229   1.471       .  S
C1090      C1249   1.475       .  S
O1091      V2363   1.888   1_455  S
O1091      C1101   1.264       .  A
O1092      V1099   1.900       .  S
O1092      C1102   1.265       .  A
O1093      V2363   1.886   1_455  S
O1093      C1103   1.262       .  A
O1094      V1099   1.894       .  S
O1094      C1104   1.264       .  A
O1095      V1100   1.893       .  S
O1095      C1104   1.263       .  A
O1096      V2364   1.899   1_455  S
O1096      C1103   1.265       .  A
O1097      V1100   1.893       .  S
O1097      C1102   1.263       .  A
O1098      V2364   1.893   1_455  S
O1098      C1101   1.262       .  A
V1099      O2355   1.895       .  S
V1099      O2357   1.896       .  S
V1099      V1100   2.086       .  T
V1100      O2360   1.893       .  S
V1100      O2362   1.894       .  S
C1101      C1196   1.471       .  S
C1102      C1219   1.480       .  S
C1103      C1209   1.474       .  S
C1104      C1189   1.473       .  S
C1105      C1106   1.404       .  A
C1105      C1110   1.391       .  A
C1105      H1112   1.083       .  S
C1106      C1107   1.408       .  A
C1107      C1108   1.395       .  A
C1107      F1114   1.358       .  S
C1108      C1109   1.404       .  A
C1108      H1113   1.083       .  S
C1109      C1110   1.404       .  A
C1110      F1111   1.355       .  S
C1115      C1116   1.402       .  A
C1115      C1120   1.391       .  A
C1115      H1122   1.083       .  S
C1116      C1117   1.408       .  A
C1117      C1118   1.395       .  A
C1117      F1124   1.358       .  S
C1118      C1119   1.404       .  A
C1118      H1123   1.083       .  S
C1119      C1120   1.405       .  A
C1120      F1121   1.354       .  S
C1125      C1126   1.399       .  A
C1125      C1130   1.389       .  A
C1125      H1132   1.081       .  S
C1126      C1127   1.402       .  A
C1127      C1128   1.393       .  A
C1128      C1129   1.406       .  A
C1128      H1133   1.083       .  S
C1129      C1130   1.407       .  A
C1130      F1131   1.357       .  S
C1135      C1136   1.406       .  A
C1135      C1140   1.392       .  A
C1135      H1142   1.083       .  S
C1136      C1137   1.409       .  A
C1137      C1138   1.396       .  A
C1137      F1144   1.358       .  S
C1138      C1139   1.402       .  A
C1138      H1143   1.083       .  S
C1139      C1140   1.400       .  A
C1145      C1146   1.406       .  A
C1145      C1150   1.396       .  A
C1145      H1152   1.083       .  S
C1146      C1147   1.404       .  A
C1147      C1148   1.389       .  A
C1147      F1154   1.356       .  S
C1148      C1149   1.403       .  A
C1148      H1153   1.083       .  S
C1149      C1150   1.406       .  A
C1150      F1151   1.358       .  S
C1155      C1156   1.400       .  A
C1155      C1160   1.391       .  A
C1155      H1162   1.083       .  S
C1156      C1157   1.401       .  A
C1157      C1158   1.390       .  A
C1157      F1164   1.356       .  S
C1158      C1159   1.405       .  A
C1158      H1163   1.083       .  S
C1159      C1160   1.406       .  A
C1160      F1161   1.357       .  S
C1165      C1166   1.399       .  A
C1165      C1170   1.389       .  A
C1166      C1167   1.404       .  A
C1167      C1168   1.396       .  A
C1167      F1174   1.357       .  S
C1168      C1169   1.407       .  A
C1168      H1173   1.083       .  S
C1169      C1170   1.408       .  A
C1170      F1171   1.357       .  S
C1175      C1176   1.402       .  A
C1175      C1180   1.393       .  A
C1175      H1182   1.083       .  S
C1176      C1177   1.401       .  A
C1177      C1178   1.391       .  A
C1177      F1184   1.356       .  S
C1178      C1179   1.406       .  A
C1178      H1183   1.083       .  S
C1179      C1180   1.407       .  A
C1180      F1181   1.358       .  S
C1185      C1186   1.406       .  A
C1185      C1190   1.393       .  A
C1185      H1192   1.082       .  S
C1186      C1187   1.408       .  A
C1187      C1188   1.395       .  A
C1188      C1189   1.404       .  A
C1188      H1193   1.083       .  S
C1189      C1190   1.406       .  A
C1190      F1191   1.358       .  S
C1195      C1196   1.400       .  A
C1195      C1200   1.388       .  A
C1195      H1202   1.083       .  S
C1196      C1197   1.408       .  A
C1197      C1198   1.398       .  A
C1197      F1204   1.358       .  S
C1198      C1199   1.405       .  A
C1199      C1200   1.407       .  A
C1200      F1201   1.353       .  S
C1205      C1206   1.405       .  A
C1205      C1210   1.397       .  A
C1205      H1212   1.083       .  S
C1206      C1207   1.404       .  A
C1207      C1208   1.391       .  A
C1207      F1214   1.356       .  S
C1208      C1209   1.404       .  A
C1208      H1213   1.083       .  S
C1209      C1210   1.408       .  A
C1210      F1211   1.357       .  S
C1215      C1216   1.400       .  A
C1215      C1220   1.395       .  A
C1215      H1222   1.083       .  S
C1216      C1217   1.404       .  A
C1217      C1218   1.398       .  A
C1217      F1224   1.356       .  S
C1218      C1219   1.407       .  A
C1218      H1223   1.083       .  S
C1219      C1220   1.410       .  A
C1220      F1221   1.357       .  S
C1225      C1226   1.404       .  A
C1225      C1230   1.396       .  A
C1225      H1232   1.083       .  S
C1226      C1227   1.404       .  A
C1227      C1228   1.390       .  A
C1228      C1229   1.403       .  A
C1228      H1233   1.083       .  S
C1229      C1230   1.409       .  A
C1230      F1231   1.358       .  S
C1235      C1236   1.405       .  A
C1235      C1240   1.395       .  A
C1235      H1242   1.083       .  S
C1236      C1237   1.410       .  A
C1237      C1238   1.392       .  A
C1237      F1244   1.357       .  S
C1238      C1239   1.399       .  A
C1239      C1240   1.405       .  A
C1240      F1241   1.356       .  S
C1245      C1246   1.403       .  A
C1245      C1250   1.393       .  A
C1245      H1252   1.083       .  S
C1246      C1247   1.405       .  A
C1247      C1248   1.395       .  A
C1247      F1254   1.355       .  S
C1248      C1249   1.404       .  A
C1248      H1253   1.083       .  S
C1249      C1250   1.408       .  A
C1250      F1251   1.358       .  S
C1255      C1256   1.406       .  A
C1255      C1260   1.398       .  A
C1255      H1262   1.083       .  S
C1256      C1257   1.409       .  A
C1257      C1258   1.391       .  A
C1257      F1264   1.353       .  S
C1258      C1259   1.400       .  A
C1258      H1263   1.083       .  S
C1259      C1260   1.409       .  A
C1260      F1261   1.358       .  S
N1265      C1270   1.359       .  A
N1265      C1269   1.362       .  A
N1265      H1297   1.033       .  S
N1266      C1273   1.353       .  A
N1266      C1274   1.353       .  A
N1267      C1272   1.364       .  A
N1267      C1271   1.361       .  A
N1267      H1298   1.033       .  S
N1268      C1275   1.352       .  A
N1268      C1276   1.353       .  A
C1269      C1277   1.389       .  A
C1269      C1285   1.435       .  A
C1270      C1286   1.430       .  A
C1270      C1278   1.387       .  A
C1271      C1279   1.385       .  A
C1271      C1288   1.433       .  A
C1272      C1287   1.437       .  A
C1272      C1280   1.386       .  A
C1273      C1285   1.418       .  A
C1273      C1281   1.387       .  A
C1274      C1288   1.415       .  A
C1274      C1282   1.385       .  A
C1275      C1283   1.386       .  A
C1275      C1286   1.416       .  A
C1276      C1284   1.388       .  A
C1276      C1287   1.419       .  A
C1277      C1278   1.361       .  A
C1277      H1289   1.079       .  S
C1278      H1290   1.081       .  S
C1279      C1280   1.362       .  A
C1279      H1291   1.080       .  S
C1280      H1292   1.078       .  S
C1281      C1282   1.370       .  A
C1281      H1293   1.082       .  S
C1282      H1294   1.082       .  S
C1283      C1284   1.371       .  A
C1283      H1295   1.082       .  S
C1284      H1296   1.081       .  S
C1285      C1430   1.504       .  S
C1286      C1568   1.498       .  S
C1287      C1475   1.511       .  S
C1288      C1369   1.506       .  S
N1299      C1304   1.362       .  A
N1299      C1303   1.361       .  A
N1299      H1331   1.033       .  S
N1300      C1307   1.355       .  A
N1300      C1308   1.354       .  A
N1301      C1306   1.362       .  A
N1301      C1305   1.363       .  A
N1301      H1332   1.033       .  S
N1302      C1309   1.353       .  A
N1302      C1310   1.353       .  A
C1303      C1311   1.386       .  A
C1303      C1319   1.432       .  A
C1304      C1320   1.435       .  A
C1304      C1312   1.385       .  A
C1305      C1313   1.389       .  A
C1305      C1322   1.439       .  A
C1306      C1321   1.433       .  A
C1306      C1314   1.385       .  A
C1307      C1319   1.419       .  A
C1307      C1315   1.385       .  A
C1308      C1322   1.422       .  A
C1308      C1316   1.388       .  A
C1309      C1317   1.387       .  A
C1309      C1320   1.418       .  A
C1310      C1318   1.386       .  A
C1310      C1321   1.417       .  A
C1311      C1312   1.361       .  A
C1311      H1323   1.080       .  S
C1312      H1324   1.077       .  S
C1313      C1314   1.362       .  A
C1313      H1325   1.078       .  S
C1314      H1326   1.080       .  S
C1315      C1316   1.373       .  A
C1315      H1327   1.082       .  S
C1316      H1328   1.082       .  S
C1317      C1318   1.370       .  A
C1317      H1329   1.082       .  S
C1318      H1330   1.082       .  S
C1319      C1421   1.508       .  S
C1320      C1561   1.508       .  S
C1321      C1482   1.507       .  S
C1322      C1380   1.509       .  S
N1333      C1338   1.361       .  A
N1333      C1337   1.361       .  A
N1333      H1365   1.031       .  S
N1334      C1342   1.354       .  A
N1335      C1340   1.362       .  A
N1335      C1339   1.363       .  A
N1335      H1366   1.033       .  S
N1336      C1344   1.353   1_455  A
C1337      C1345   1.385       .  A
C1337      C1353   1.432       .  A
C1338      C1354   1.435       .  A
C1338      C1346   1.387       .  A
C1339      C1347   1.390       .  A
C1339      C1356   1.438       .  A
C1340      C1355   1.434       .  A
C1340      C1348   1.386       .  A
C1341      C1353   1.419       .  A
C1341      C1349   1.385       .  A
C1342      C1356   1.423       .  A
C1342      C1350   1.388       .  A
C1343      C1351   1.388       .  A
C1343      C1354   1.421       .  A
C1344      C1352   1.386       .  A
C1344      C1355   1.418       .  A
C1345      C1346   1.360       .  A
C1345      H1357   1.080       .  S
C1346      H1358   1.079       .  S
C1347      C1348   1.362       .  A
C1347      H1359   1.079       .  S
C1348      H1360   1.081       .  S
C1349      H1361   1.081       .  S
C1350      H1362   1.081       .  S
C1351      H1363   1.082       .  S
C1352      H1364   1.082       .  S
C1353      C1378   1.510       .  S
C1354      C1676   1.506       .  S
C1355      C1667   1.506       .  S
C1356      C1371   1.510       .  S
C1367      C1368   1.397       .  A
C1367      C1372   1.400       .  A
C1367      C1888   1.481       .  S
C1368      C1369   1.403       .  A
C1368      H1373   1.084       .  S
C1369      C1370   1.417       .  A
C1370      C1371   1.416       .  A
C1370      H1374   1.083       .  S
C1371      C1372   1.407       .  A
C1372      H1375   1.084       .  S
C1376      C1377   1.395       .  A
C1376      C1381   1.396       .  A
C1376      C1878   1.472       .  S
C1377      C1378   1.407       .  A
C1377      H1382   1.084       .  S
C1378      C1379   1.418       .  A
C1379      C1380   1.417       .  A
C1379      H1383   1.083       .  S
C1380      C1381   1.404       .  A
C1381      H1384   1.084       .  S
N1385      C1390   1.361       .  A
N1385      C2021   1.364       .  A
N1385      H1417   1.032       .  S
N1386      C1394   1.352       .  A
N1387      C1392   1.362       .  A
N1387      C2023   1.362       .  A
N1387      H1418   1.034       .  S
N1388      C1396   1.353       .  A
C1389      N2017   1.360   1_545  A
C1389      C1397   1.385       .  A
C1389      C1405   1.430       .  A
C1390      C1406   1.433       .  A
C1390      C1398   1.385       .  A
C1391      N2019   1.359       .  A
C1391      C1399   1.387       .  A
C1391      C1408   1.435       .  A
C1392      C1407   1.437       .  A
C1392      C1400   1.389       .  A
C1393      C1405   1.416       .  A
C1393      C1401   1.386       .  A
C1394      C1408   1.418       .  A
C1394      C1402   1.388       .  A
C1395      C1403   1.386       .  A
C1395      C1406   1.416       .  A
C1396      C1404   1.388       .  A
C1396      C1407   1.420       .  A
C1397      C2030   1.361   1_545  A
C1397      H1409   1.081       .  S
C1398      C2029   1.363       .  A
C1398      H1410   1.081       .  S
C1399      C2032   1.363   1_545  A
C1399      H1411   1.079       .  S
C1400      C2031   1.361       .  A
C1400      H1412   1.077       .  S
C1401      H1413   1.082       .  S
C1402      H1414   1.082       .  S
C1403      H1415   1.082       .  S
C1404      H1416   1.082       .  S
C1405      C1658   1.501       .  S
C1406      C1432   1.504       .  S
C1407      C1423   1.505       .  S
C1408      C1649   1.500       .  S
C1419      C2052   1.394   1_545  A
C1419      C1424   1.394       .  A
C1419      C1871   1.468       .  S
C1420      C2051   1.397       .  A
C1420      C1421   1.407       .  A
C1420      H1425   1.084       .  S
C1421      C1422   1.417       .  A
C1422      C1423   1.417       .  A
C1422      H1426   1.083       .  S
C1423      C2056   1.403       .  A
C1424      C2055   1.403   1_545  A
C1424      H1427   1.085       .  S
C1428      C2061   1.388       .  A
C1428      C1433   1.393   1_565  A
C1428      C1858   1.456   1_565  S
C1429      C2060   1.396       .  A
C1429      C1430   1.403       .  A
C1429      H1434   1.084       .  S
C1430      C1431   1.416       .  A
C1431      C1432   1.416       .  A
C1431      H1435   1.083       .  S
C1432      C2065   1.403       .  A
C1433      C2064   1.403   1_545  A
C1433      H1436   1.085       .  S
N1437      C1442   1.362       .  A
N1437      C1441   1.362   1_556  A
N1437      H1469   1.033       .  S
N1438      C1445   1.353       .  A
N1438      C1446   1.354       .  A
N1439      C1444   1.362   1_554  A
N1439      C1443   1.362       .  A
N1439      H1470   1.033       .  S
N1440      C1447   1.354       .  A
N1440      C1448   1.353       .  A
C1441      C1449   1.390       .  A
C1441      C1457   1.438       .  A
C1442      C1458   1.432       .  A
C1442      C1450   1.386       .  A
C1443      C1451   1.387       .  A
C1443      C1460   1.433       .  A
C1444      C1459   1.436       .  A
C1444      C1452   1.388       .  A
C1445      C1457   1.420       .  A
C1445      C1453   1.388       .  A
C1446      C1460   1.417       .  A
C1446      C1454   1.385       .  A
C1447      C1455   1.385       .  A
C1447      C1458   1.416       .  A
C1448      C1456   1.388       .  A
C1448      C1459   1.419       .  A
C1449      C1450   1.361   1_554  A
C1449      H1461   1.079       .  S
C1450      H1462   1.081       .  S
C1451      C1452   1.360   1_554  A
C1451      H1463   1.081       .  S
C1452      H1464   1.080       .  S
C1453      C1454   1.372       .  A
C1453      H1465   1.082       .  S
C1454      H1466   1.082       .  S
C1455      C1456   1.370       .  A
C1455      H1467   1.082       .  S
C1456      H1468   1.081       .  S
C1457      C1629   1.504       .  S
C1458      C1473   1.507       .  S
C1459      C1484   1.505       .  S
C1460      C1638   1.506       .  S
C1471      C1472   1.398       .  A
C1471      C1476   1.400       .  A
C1471      C1848   1.482       .  S
C1472      C1473   1.404       .  A
C1472      H1477   1.084       .  S
C1473      C1474   1.416       .  A
C1474      C1475   1.417       .  A
C1474      H1478   1.083       .  S
C1475      C1476   1.407       .  A
C1476      H1479   1.084       .  S
C1480      C1481   1.396       .  A
C1480      C1485   1.393       .  A
C1480      C1838   1.471       .  S
C1481      C1482   1.405       .  A
C1481      H1486   1.084       .  S
C1482      C1483   1.418       .  A
C1483      C1484   1.416       .  A
C1483      H1487   1.083       .  S
C1484      C1485   1.404       .  A
C1485      H1488   1.085       .  S
N1489      C1494   1.359       .  A
N1489      C1493   1.362       .  A
N1489      H1521   1.031       .  S
N1490      C1497   1.352       .  A
N1490      C1498   1.351       .  A
N1491      C1496   1.363       .  A
N1491      C1495   1.361       .  A
N1491      H1522   1.032       .  S
N1492      C1499   1.353       .  A
N1492      C1500   1.354       .  A
C1493      C1501   1.387       .  A
C1493      C1509   1.436       .  A
C1494      C1510   1.430       .  A
C1494      C1502   1.386       .  A
C1495      C1503   1.384       .  A
C1495      C1512   1.432       .  A
C1496      C1511   1.437       .  A
C1496      C1504   1.386       .  A
C1497      C1509   1.418       .  A
C1497      C1505   1.388       .  A
C1498      C1512   1.413       .  A
C1498      C1506   1.385       .  A
C1499      C1507   1.385       .  A
C1499      C1510   1.418       .  A
C1500      C1508   1.388       .  A
C1500      C1511   1.422       .  A
C1501      C1502   1.360       .  A
C1501      H1513   1.076       .  S
C1502      H1514   1.081       .  S
C1503      C1504   1.360       .  A
C1503      H1515   1.080       .  S
C1504      H1516   1.076       .  S
C1505      C1506   1.371       .  A
C1505      H1517   1.082       .  S
C1506      H1518   1.082       .  S
C1507      C1508   1.374       .  A
C1507      H1519   1.082       .  S
C1508      H1520   1.082       .  S
C1509      C1622   1.506       .  S
C1510      C1656   1.501       .  S
C1511      C1665   1.512       .  S
C1512      C1631   1.501       .  S
N1523      C1528   1.362       .  A
N1523      C2159   1.359   1_556  A
N1523      H1555   1.030       .  S
N1524      C1531   1.354       .  A
N1524      C1532   1.353       .  A
N1525      C1530   1.357   1_554  A
N1525      C2161   1.360       .  A
N1525      H1556   1.026       .  S
N1526      C1533   1.353       .  A
N1526      C1534   1.352       .  A
C1527      N2155   1.359   1_545  A
C1527      C1535   1.389   1_545  A
C1527      C1543   1.436       .  A
C1528      C1544   1.430       .  A
C1528      C1536   1.385       .  A
C1529      N2157   1.361       .  A
C1529      C1537   1.389       .  A
C1529      C1546   1.438       .  A
C1530      C1545   1.430       .  A
C1530      C1538   1.386       .  A
C1531      C1543   1.421       .  A
C1531      C1539   1.386       .  A
C1532      C1546   1.421       .  A
C1532      C1540   1.388       .  A
C1533      C1541   1.385       .  A
C1533      C1544   1.415       .  A
C1534      C1542   1.387       .  A
C1534      C1545   1.417       .  A
C1535      C2168   1.361   1_554  A
C1535      H1547   1.079   1_565  S
C1536      C2167   1.363   1_556  A
C1536      H1548   1.081       .  S
C1537      C2170   1.362   1_544  A
C1537      H1549   1.078       .  S
C1538      C2169   1.362   1_556  A
C1538      H1550   1.081       .  S
C1539      C1540   1.373       .  A
C1539      H1551   1.082       .  S
C1540      H1552   1.081       .  S
C1541      C1542   1.372       .  A
C1541      H1553   1.082       .  S
C1542      H1554   1.082       .  S
C1543      C1613   1.503       .  S
C1544      C1559   1.505       .  S
C1545      C1570   1.495       .  S
C1546      C1620   1.504       .  S
C1557      C1558   1.397       .  A
C1557      C2194   1.398       .  A
C1557      C1831   1.481   1_565  S
C1558      C2191   1.407       .  A
C1558      H1563   1.084   1_565  S
C1559      C2190   1.404       .  A
C1559      C1560   1.417       .  A
C1560      C1561   1.417       .  A
C1560      H1564   1.083       .  S
C1561      C1562   1.405       .  A
C1562      C2189   1.396       .  A
C1562      H1565   1.084       .  S
C1566      C2199   1.395       .  A
C1566      C1571   1.395   1_565  A
C1566      C1818   1.473   1_565  S
C1567      C2198   1.394       .  A
C1567      C1568   1.402       .  A
C1567      H1572   1.085       .  S
C1568      C1569   1.412       .  A
C1569      C1570   1.411       .  A
C1569      H1573   1.083       .  S
C1570      C2203   1.403       .  A
C1571      C2202   1.404   1_545  A
C1571      H1574   1.084       .  S
N1575      C1580   1.362       .  A
N1575      C1579   1.361       .  A
N1575      H1607   1.033       .  S
N1576      C1583   1.352       .  A
N1576      C1584   1.352       .  A
N1577      C1582   1.361       .  A
N1577      C1581   1.361       .  A
N1577      H1608   1.030       .  S
N1578      C1585   1.354       .  A
N1578      C1586   1.354       .  A
C1579      C1587   1.385       .  A
C1579      C1595   1.430       .  A
C1580      C1596   1.437       .  A
C1580      C1588   1.389       .  A
C1581      C1589   1.386       .  A
C1581      C1598   1.435       .  A
C1582      C1597   1.434       .  A
C1582      C1590   1.388       .  A
C1583      C1595   1.414       .  A
C1583      C1591   1.385       .  A
C1584      C1598   1.417       .  A
C1584      C1592   1.387       .  A
C1585      C1593   1.388       .  A
C1585      C1596   1.422       .  A
C1586      C1594   1.386       .  A
C1586      C1597   1.420       .  A
C1587      C1588   1.360       .  A
C1587      H1599   1.081       .  S
C1588      H1600   1.077       .  S
C1589      C1590   1.362       .  A
C1589      H1601   1.079       .  S
C1590      H1602   1.080       .  S
C1591      C1592   1.374       .  A
C1591      H1603   1.082       .  S
C1592      H1604   1.082       .  S
C1593      C1594   1.372       .  A
C1593      H1605   1.081       .  S
C1594      H1606   1.082       .  S
C1595      C1611   1.501       .  S
C1596      C1647   1.506       .  S
C1597      C1674   1.506       .  S
C1598      C1640   1.502       .  S
C1609      C2242   1.397       .  A
C1609      C1614   1.396       .  A
C1609      C1808   1.476       .  S
C1610      C2241   1.397   1_545  A
C1610      C1611   1.404       .  A
C1610      H1615   1.084       .  S
C1611      C1612   1.414       .  A
C1612      C1613   1.415       .  A
C1612      H1616   1.083       .  S
C1613      C2246   1.403   1_545  A
C1614      C2245   1.404       .  A
C1614      H1617   1.084       .  S
C1618      C1619   1.397       .  A
C1618      C2255   1.398       .  A
C1618      C1798   1.477       .  S
C1619      C2252   1.403       .  A
C1619      H1624   1.084       .  S
C1620      C2251   1.404   1_545  A
C1620      C1621   1.414       .  A
C1621      C1622   1.416       .  A
C1621      H1625   1.083       .  S
C1622      C1623   1.405       .  A
C1623      C2250   1.396   1_545  A
C1623      H1626   1.084       .  S
C1627      C1628   1.391       .  A
C1627      C1632   1.390       .  A
C1627      C1788   1.460       .  S
C1628      C1629   1.403       .  A
C1628      H1633   1.085       .  S
C1629      C1630   1.418       .  A
C1630      C1631   1.417       .  A
C1630      H1634   1.083       .  S
C1631      C1632   1.401       .  A
C1632      H1635   1.085       .  S
C1636      C1637   1.394       .  A
C1636      C1641   1.395       .  A
C1636      C1778   1.470       .  S
C1637      C1638   1.404       .  A
C1637      H1642   1.085       .  S
C1638      C1639   1.418       .  A
C1639      C1640   1.416       .  A
C1639      H1643   1.083       .  S
C1640      C1641   1.403       .  A
C1641      H1644   1.084       .  S
C1645      C2278   1.394       .  A
C1645      C1650   1.394       .  A
C1645      C1771   1.469       .  S
C1646      C2277   1.398       .  A
C1646      C1647   1.405       .  A
C1646      H1651   1.084       .  S
C1647      C1648   1.414       .  A
C1648      C1649   1.414       .  A
C1648      H1652   1.083       .  S
C1649      C2282   1.403   1_545  A
C1650      C2281   1.403       .  A
C1650      H1653   1.085       .  S
C1654      C2287   1.397       .  A
C1654      C1659   1.401       .  A
C1654      C1758   1.481       .  S
C1655      C2286   1.395       .  A
C1655      C1656   1.406       .  A
C1655      H1660   1.085       .  S
C1656      C1657   1.414       .  A
C1657      C1658   1.415       .  A
C1657      H1661   1.083       .  S
C1658      C2291   1.404   1_545  A
C1659      C2290   1.406       .  A
C1659      H1662   1.083       .  S
C1663      C1664   1.398       .  A
C1663      C1668   1.395       .  A
C1663      C1751   1.476       .  S
C1664      C1665   1.408       .  A
C1664      H1669   1.084       .  S
C1665      C1666   1.417       .  A
C1666      C1667   1.417       .  A
C1666      H1670   1.083       .  S
C1667      C1668   1.405       .  A
C1668      H1671   1.085       .  S
C1672      C1673   1.399       .  A
C1672      C1677   1.399       .  A
C1672      C1741   1.483       .  S
C1673      C1674   1.406       .  A
C1673      H1678   1.084       .  S
C1674      C1675   1.415       .  A
C1675      C1676   1.414       .  A
C1675      H1679   1.083       .  S
C1676      C1677   1.408       .  A
C1677      H1680   1.084       .  S
O1681      V1689   1.891   1_655  S
O1681      C1691   1.263       .  A
O1682      C1692   1.262       .  A
O1683      V1689   1.886   1_655  S
O1683      C1693   1.261       .  A
O1684      C1694   1.263       .  A
O1685      C1694   1.264       .  A
O1686      V1690   1.890       .  S
O1686      C1693   1.264       .  A
O1687      C1692   1.263       .  A
O1688      V1690   1.888       .  S
O1688      C1691   1.263       .  A
V1689      V1690   2.087   1_455  T
C1691      C1801   1.470       .  S
C1692      C1781   1.470       .  S
C1693      C1791   1.468       .  S
C1694      C1811   1.475       .  S
O1695      V1703   1.896       .  S
O1695      C1705   1.263       .  A
O1696      V1703   1.896       .  S
O1696      C1706   1.264       .  A
O1697      V1703   1.894       .  S
O1697      C1707   1.263       .  A
O1698      V1703   1.894       .  S
O1698      C1708   1.265       .  A
O1699      V1704   1.895       .  S
O1699      C1708   1.263       .  A
O1700      V1704   1.891       .  S
O1700      C1707   1.263       .  A
O1701      V1704   1.897       .  S
O1701      C1706   1.264       .  A
O1702      V1704   1.890       .  S
O1702      C1705   1.264       .  A
V1703      V1704   2.086       .  T
C1705      C1761   1.472       .  S
C1706      C1738   1.479       .  S
C1707      C1768   1.474       .  S
C1708      C1748   1.478       .  S
O1709      V1717   1.886       .  S
O1709      C1719   1.261       .  A
O1710      V1717   1.891       .  S
O1710      C1720   1.262       .  A
O1711      V1717   1.892       .  S
O1711      C1721   1.264       .  A
O1712      V1717   1.898       .  S
O1712      C1722   1.265       .  A
O1713      V1718   1.888       .  S
O1713      C1722   1.262       .  A
O1714      V1718   1.888       .  S
O1714      C1721   1.261       .  A
O1715      V1718   1.897       .  S
O1715      C1720   1.266       .  A
O1716      V1718   1.898       .  S
O1716      C1719   1.265       .  A
V1717      V1718   2.086       .  T
C1719      C1868   1.473       .  S
C1720      C1891   1.476       .  S
C1721      C1861   1.465       .  S
C1722      C1881   1.476       .  S
O1723      C1733   1.264       .  A
O1724      V1731   1.895       .  S
O1724      C1734   1.264       .  A
O1725      C1735   1.262       .  A
O1726      V1731   1.889       .  S
O1726      C1736   1.262       .  A
O1727      V1732   1.890       .  S
O1727      C1736   1.263       .  A
O1728      C1735   1.265       .  A
O1729      V1732   1.896       .  S
O1729      C1734   1.264       .  A
O1730      C1733   1.264       .  A
V1731      V1732   2.086       .  T
C1733      C1828   1.479       .  S
C1734      C1851   1.477       .  S
C1735      C1841   1.476       .  S
C1736      C1821   1.472       .  S
C1737      C1738   1.405       .  A
C1737      C1742   1.397       .  A
C1737      H1744   1.083       .  S
C1738      C1739   1.408       .  A
C1739      C1740   1.396       .  A
C1739      F1746   1.357       .  S
C1740      C1741   1.404       .  A
C1740      H1745   1.083       .  S
C1741      C1742   1.408       .  A
C1742      F1743   1.356       .  S
C1747      C1748   1.404       .  A
C1747      C1752   1.393       .  A
C1747      H1754   1.083       .  S
C1748      C1749   1.410       .  A
C1749      C1750   1.398       .  A
C1749      F1756   1.357       .  S
C1750      C1751   1.403       .  A
C1750      H1755   1.083       .  S
C1751      C1752   1.404       .  A
C1752      F1753   1.354       .  S
C1757      C1758   1.407       .  A
C1757      C1762   1.397       .  A
C1757      H1764   1.083       .  S
C1758      C1759   1.406       .  A
C1759      C1760   1.390       .  A
C1759      F2398   1.354       .  S
C1760      C1761   1.401       .  A
C1760      H1765   1.083       .  S
C1761      C1762   1.407       .  A
C1762      F1763   1.358       .  S
F1766      C2391   1.357       .  S
C1767      C1768   1.406       .  A
C1767      C1772   1.393       .  A
C1767      H1774   1.083       .  S
C1768      C1769   1.409       .  A
C1769      C1770   1.395       .  A
C1769      F1776   1.358       .  S
C1770      C1771   1.402       .  A
C1770      H1775   1.082       .  S
C1771      C1772   1.402       .  A
C1772      F2405   1.357       .  S
F1773      C2404   1.356       .  S
C1777      C1778   1.403       .  A
C1777      C1782   1.396       .  A
C1777      H1784   1.083       .  S
C1778      C1779   1.403       .  A
C1779      C1780   1.389       .  A
C1779      F1786   1.355       .  S
C1780      C1781   1.403       .  A
C1780      H1785   1.083       .  S
C1781      C1782   1.409       .  A
C1782      F1783   1.358       .  S
C1787      C1788   1.398       .  A
C1787      C1792   1.392       .  A
C1787      H1794   1.083       .  S
C1788      C1789   1.401       .  A
C1789      C1790   1.390       .  A
C1789      F1796   1.356       .  S
C1790      C1791   1.404       .  A
C1790      H1795   1.083       .  S
C1791      C1792   1.409       .  A
C1792      F1793   1.358       .  S
C1797      C1798   1.405       .  A
C1797      C1802   1.393       .  A
C1797      H2436   1.082       .  S
C1798      C1799   1.406       .  A
C1799      C1800   1.392       .  A
C1799      F1806   1.356       .  S
C1800      C1801   1.404       .  A
C1800      H1805   1.083       .  S
C1801      C1802   1.406       .  A
C1802      F1803   1.358       .  S
H1804      C2429   1.081       .  S
C1807      C1808   1.402       .  A
C1807      C1812   1.393       .  A
C1807      H1814   1.082       .  S
C1808      C1809   1.406       .  A
C1809      C1810   1.397       .  A
C1809      F1816   1.357       .  S
C1810      C1811   1.405       .  A
C1810      H1815   1.083       .  S
C1811      C1812   1.408       .  A
C1812      F1813   1.357       .  S
C1817      C1818   1.403       .  A
C1817      C1822   1.393       .  A
C1817      H1824   1.082       .  S
C1818      C1819   1.404       .  A
C1819      C1820   1.393       .  A
C1819      F2458   1.356       .  S
C1820      C1821   1.405       .  A
C1820      H1825   1.083       .  S
C1821      C1822   1.408       .  A
C1822      F1823   1.358       .  S
F1826      C2451   1.357       .  S
C1827      C1828   1.404       .  A
C1827      C1832   1.392       .  A
C1827      H1834   1.083       .  S
C1828      C1829   1.410       .  A
C1829      C1830   1.400       .  A
C1829      F1836   1.357       .  S
C1830      C1831   1.405       .  A
C1830      H2467   1.083       .  S
C1831      C1832   1.405       .  A
C1832      F1833   1.355       .  S
H1835      C2462   1.084       .  S
C1837      C1838   1.402       .  A
C1837      C1842   1.396       .  A
C1837      H1844   1.083       .  S
C1838      C1839   1.402       .  A
C1839      C1840   1.393       .  A
C1839      F1846   1.357       .  S
C1840      C1841   1.407       .  A
C1840      H1845   1.083       .  S
C1841      C1842   1.408       .  A
C1842      F1843   1.357       .  S
C1847      C1848   1.405       .  A
C1847      C1852   1.397       .  A
C1847      H1854   1.083       .  S
C1848      C1849   1.407       .  A
C1849      C1850   1.394       .  A
C1849      F1856   1.355       .  S
C1850      C1851   1.404       .  A
C1850      H1855   1.083       .  S
C1851      C1852   1.408       .  A
C1852      F1853   1.357       .  S
C1857      C1858   1.398       .  A
C1857      C1862   1.393       .  A
C1857      H1864   1.084       .  S
C1858      C1859   1.400       .  A
C1859      C1860   1.391       .  A
C1859      F2498   1.357       .  S
C1860      C1861   1.403       .  A
C1860      H1865   1.083       .  S
C1861      C1862   1.408       .  A
C1862      F1863   1.358       .  S
F1866      C2491   1.356       .  S
C1867      C1868   1.404       .  A
C1867      C1872   1.394       .  A
C1867      H1874   1.083       .  S
C1868      C1869   1.410       .  A
C1869      C1870   1.393       .  A
C1869      F1876   1.357       .  S
C1870      C1871   1.399       .  A
C1870      H2507   1.083       .  S
C1871      C1872   1.404       .  A
C1872      F1873   1.356       .  S
H1875      C2502   1.081       .  S
C1877      C1878   1.400       .  A
C1877      C1882   1.394       .  A
C1877      H1884   1.083       .  S
C1878      C1879   1.404       .  A
C1879      C1880   1.396       .  A
C1879      F1886   1.356       .  S
C1880      C1881   1.405       .  A
C1880      H1885   1.083       .  S
C1881      C1882   1.410       .  A
C1882      F1883   1.358       .  S
C1887      C1888   1.404       .  A
C1887      C1892   1.397       .  A
C1887      H1894   1.083       .  S
C1888      C1889   1.408       .  A
C1889      C1890   1.393       .  A
C1889      F1896   1.355       .  S
C1890      C1891   1.402       .  A
C1890      H1895   1.083       .  S
C1891      C1892   1.410       .  A
C1892      F1893   1.358       .  S
N1897      C1902   1.363       .  A
N1897      C1901   1.361       .  A
N1897      H1929   1.033       .  S
N1898      C1905   1.351       .  A
N1898      C1906   1.352       .  A
N1899      C1904   1.361       .  A
N1899      C1903   1.363       .  A
N1899      H1930   1.032       .  S
N1900      C1907   1.354       .  A
N1900      C1908   1.353       .  A
C1901      C1909   1.387       .  A
C1901      C1917   1.433       .  A
C1902      C1918   1.437       .  A
C1902      C1910   1.389       .  A
C1903      C1911   1.384       .  A
C1903      C1920   1.435       .  A
C1904      C1919   1.435       .  A
C1904      C1912   1.386       .  A
C1905      C1917   1.413       .  A
C1905      C1913   1.386       .  A
C1906      C1920   1.415       .  A
C1906      C1914   1.387       .  A
C1907      C1915   1.387       .  A
C1907      C1918   1.420       .  A
C1908      C1916   1.386       .  A
C1908      C1919   1.420       .  A
C1909      C1910   1.362       .  A
C1909      H1921   1.081       .  S
C1910      H1922   1.079       .  S
C1911      C1912   1.360       .  A
C1911      H1923   1.078       .  S
C1912      H1924   1.079       .  S
C1913      C1914   1.370       .  A
C1913      H1925   1.082       .  S
C1914      H1926   1.082       .  S
C1915      C1916   1.372       .  A
C1915      H1927   1.082       .  S
C1916      H1928   1.082       .  S
C1917      C2062   1.498       .  S
C1918      C2200   1.509       .  S
C1919      C2107   1.508       .  S
C1920      C2001   1.507       .  S
N1931      C1936   1.362       .  A
N1931      C1935   1.360       .  A
N1931      H1963   1.032       .  S
N1932      C1939   1.354       .  A
N1932      C1940   1.355       .  A
N1933      C1938   1.360       .  A
N1933      C1937   1.361       .  A
N1933      H1964   1.032       .  S
N1934      C1941   1.354       .  A
N1934      C1942   1.352       .  A
C1935      C1943   1.388       .  A
C1935      C1951   1.437       .  A
C1936      C1952   1.433       .  A
C1936      C1944   1.384       .  A
C1937      C1945   1.387       .  A
C1937      C1954   1.433       .  A
C1938      C1953   1.435       .  A
C1938      C1946   1.387       .  A
C1939      C1951   1.422       .  A
C1939      C1947   1.388       .  A
C1940      C1954   1.420       .  A
C1940      C1948   1.385       .  A
C1941      C1949   1.385       .  A
C1941      C1952   1.416       .  A
C1942      C1950   1.388       .  A
C1942      C1953   1.420       .  A
C1943      C1944   1.362       .  A
C1943      H1955   1.078       .  S
C1944      H1956   1.080       .  S
C1945      C1946   1.360       .  A
C1945      H1957   1.080       .  S
C1946      H1958   1.078       .  S
C1947      C1948   1.371       .  A
C1947      H1959   1.081       .  S
C1948      H1960   1.082       .  S
C1949      C1950   1.370       .  A
C1949      H1961   1.082       .  S
C1950      H1962   1.081       .  S
C1951      C2053   1.506       .  S
C1952      C2193   1.507       .  S
C1953      C2114   1.502       .  S
C1954      C2012   1.509       .  S
N1965      C1970   1.362       .  A
N1965      C1969   1.363       .  A
N1965      H1997   1.032       .  S
N1966      C1974   1.354   1_455  A
N1967      C1972   1.363       .  A
N1967      C1971   1.362       .  A
N1967      H1998   1.032       .  S
N1968      C1976   1.353       .  A
C1969      C1977   1.388       .  A
C1969      C1985   1.437       .  A
C1970      C1986   1.433       .  A
C1970      C1978   1.385       .  A
C1971      C1979   1.386       .  A
C1971      C1988   1.434       .  A
C1972      C1987   1.441       .  A
C1972      C1980   1.390       .  A
C1973      C1985   1.421       .  A
C1973      C1981   1.388       .  A
C1974      C1988   1.418       .  A
C1974      C1982   1.386       .  A
C1975      C1983   1.385       .  A
C1975      C1986   1.416       .  A
C1976      C1984   1.388       .  A
C1976      C1987   1.421       .  A
C1977      C1978   1.361       .  A
C1977      H1989   1.078       .  S
C1978      H1990   1.081       .  S
C1979      C1980   1.363       .  A
C1979      H1991   1.082       .  S
C1980      H1992   1.078       .  S
C1981      H1993   1.081       .  S
C1982      H1994   1.082       .  S
C1983      H1995   1.082       .  S
C1984      H1996   1.081       .  S
C1985      C2010   1.508       .  S
C1986      C2308   1.508       .  S
C1987      C2299   1.509       .  S
C1988      C2003   1.507       .  S
C1999      C2000   1.396       .  A
C1999      C2004   1.397       .  A
C1999      C2520   1.477       .  S
C2000      C2001   1.405       .  A
C2000      H2005   1.084       .  S
C2001      C2002   1.417       .  A
C2002      C2003   1.418       .  A
C2002      H2006   1.083       .  S
C2003      C2004   1.405       .  A
C2004      H2007   1.084       .  S
C2008      C2009   1.394       .  A
C2008      C2013   1.395       .  A
C2008      C2510   1.469       .  S
C2009      C2010   1.405       .  A
C2009      H2014   1.084       .  S
C2010      C2011   1.417       .  A
C2011      C2012   1.417       .  A
C2011      H2015   1.083       .  S
C2012      C2013   1.406       .  A
C2013      H2016   1.084       .  S
N2017      C2022   1.361       .  A
N2017      H2049   1.031       .  S
N2018      C2026   1.352       .  A
N2019      C2024   1.361   1_545  A
N2019      H2050   1.029       .  S
N2020      C2028   1.353       .  A
C2021      C2029   1.386       .  A
C2021      C2037   1.438       .  A
C2022      C2038   1.438       .  A
C2022      C2030   1.390       .  A
C2023      C2031   1.384       .  A
C2023      C2040   1.430       .  A
C2024      C2039   1.433       .  A
C2024      C2032   1.387       .  A
C2025      C2037   1.419       .  A
C2025      C2033   1.388       .  A
C2026      C2040   1.412       .  A
C2026      C2034   1.385       .  A
C2027      C2035   1.388       .  A
C2027      C2038   1.421       .  A
C2028      C2036   1.386       .  A
C2028      C2039   1.416       .  A
C2029      H2041   1.077       .  S
C2030      H2042   1.078       .  S
C2031      H2043   1.081       .  S
C2032      H2044   1.080       .  S
C2033      H2045   1.081       .  S
C2034      H2046   1.082       .  S
C2035      H2047   1.081       .  S
C2036      H2048   1.082       .  S
C2037      C2290   1.511       .  S
C2038      C2064   1.504       .  S
C2039      C2055   1.504       .  S
C2040      C2281   1.503       .  S
C2051      C2056   1.395       .  A
C2051      C2503   1.475       .  S
C2052      C2053   1.404       .  A
C2052      H2057   1.084       .  S
C2053      C2054   1.416       .  A
C2054      C2055   1.417       .  A
C2054      H2058   1.083       .  S
C2056      H2059   1.085       .  S
C2060      C2065   1.397       .  A
C2060      C2490   1.475       .  S
C2061      C2062   1.399       .  A
C2061      H2066   1.085       .  S
C2062      C2063   1.416       .  A
C2063      C2064   1.416       .  A
C2063      H2067   1.083       .  S
C2065      H2068   1.084       .  S
N2069      C2074   1.359       .  A
N2069      C2073   1.358   1_556  A
N2069      H2101   1.021       .  S
N2070      C2077   1.351       .  A
N2070      C2078   1.351       .  A
N2071      C2076   1.359       .  A
N2071      C2075   1.361   1_556  A
N2071      H2102   1.025   1_556  S
N2072      C2079   1.355       .  A
N2072      C2080   1.353       .  A
C2073      C2081   1.388       .  A
C2073      C2089   1.434       .  A
C2074      C2090   1.435       .  A
C2074      C2082   1.388       .  A
C2075      C2083   1.386       .  A
C2075      C2092   1.432       .  A
C2076      C2091   1.436       .  A
C2076      C2084   1.389       .  A
C2077      C2089   1.416       .  A
C2077      C2085   1.387       .  A
C2078      C2092   1.415       .  A
C2078      C2086   1.386       .  A
C2079      C2087   1.386       .  A
C2079      C2090   1.421       .  A
C2080      C2088   1.388       .  A
C2080      C2091   1.423       .  A
C2081      C2082   1.363   1_554  A
C2081      H2093   1.080       .  S
C2082      H2094   1.079       .  S
C2083      C2084   1.361   1_554  A
C2083      H2095   1.080       .  S
C2084      H2096   1.078       .  S
C2085      C2086   1.372       .  A
C2085      H2097   1.082       .  S
C2086      H2098   1.082       .  S
C2087      C2088   1.371       .  A
C2087      H2099   1.082       .  S
C2088      H2100   1.081       .  S
C2089      C2261   1.497       .  S
C2090      C2105   1.504       .  S
C2091      C2116   1.503       .  S
C2092      C2270   1.501       .  S
C2103      C2104   1.395       .  A
C2103      C2108   1.396       .  A
C2103      C2480   1.472       .  S
C2104      C2105   1.404       .  A
C2104      H2109   1.085       .  S
C2105      C2106   1.415       .  A
C2106      C2107   1.417       .  A
C2106      H2110   1.083       .  S
C2107      C2108   1.406       .  A
C2108      H2111   1.084       .  S
C2112      C2113   1.396       .  A
C2112      C2117   1.397       .  A
C2112      C2470   1.475       .  S
C2113      C2114   1.406       .  A
C2113      H2118   1.084       .  S
C2114      C2115   1.412       .  A
C2115      C2116   1.412       .  A
C2115      H2119   1.083       .  S
C2116      C2117   1.406       .  A
C2117      H2120   1.084       .  S
N2121      C2126   1.362       .  A
N2121      C2125   1.363       .  A
N2121      H2153   1.032       .  S
N2122      C2129   1.353       .  A
N2122      C2130   1.352       .  A
N2123      C2128   1.363       .  A
N2123      C2127   1.360       .  A
N2123      H2154   1.032       .  S
N2124      C2131   1.353       .  A
N2124      C2132   1.354       .  A
C2125      C2133   1.386       .  A
C2125      C2141   1.435       .  A
C2126      C2142   1.438       .  A
C2126      C2134   1.389       .  A
C2127      C2135   1.387       .  A
C2127      C2144   1.435       .  A
C2128      C2143   1.434       .  A
C2128      C2136   1.385       .  A
C2129      C2141   1.417       .  A
C2129      C2137   1.386       .  A
C2130      C2144   1.418       .  A
C2130      C2138   1.387       .  A
C2131      C2139   1.387       .  A
C2131      C2142   1.418       .  A
C2132      C2140   1.385       .  A
C2132      C2143   1.415       .  A
C2133      C2134   1.362       .  A
C2133      H2145   1.080       .  S
C2134      H2146   1.080       .  S
C2135      C2136   1.361       .  A
C2135      H2147   1.080       .  S
C2136      H2148   1.079       .  S
C2137      C2138   1.372       .  A
C2137      H2149   1.082       .  S
C2138      H2150   1.082       .  S
C2139      C2140   1.369       .  A
C2139      H2151   1.081       .  S
C2140      H2152   1.082       .  S
C2141      C2254   1.508       .  S
C2142      C2288   1.505       .  S
C2143      C2297   1.509       .  S
C2144      C2263   1.500       .  S
N2155      C2160   1.359   1_554  A
N2155      H2187   1.026       .  S
N2156      C2163   1.353       .  A
N2156      C2164   1.356       .  A
N2157      C2162   1.362   1_544  A
N2157      H2188   1.030       .  S
N2158      C2165   1.355       .  A
N2158      C2166   1.354       .  A
C2159      C2167   1.391       .  A
C2159      C2175   1.437       .  A
C2160      C2176   1.433       .  A
C2160      C2168   1.387       .  A
C2161      C2169   1.389       .  A
C2161      C2178   1.437       .  A
C2162      C2177   1.433       .  A
C2162      C2170   1.385       .  A
C2163      C2175   1.423       .  A
C2163      C2171   1.388       .  A
C2164      C2178   1.422       .  A
C2164      C2172   1.386       .  A
C2165      C2173   1.386       .  A
C2165      C2176   1.420       .  A
C2166      C2174   1.385       .  A
C2166      C2177   1.418       .  A
C2167      H2179   1.078       .  S
C2168      H2180   1.081       .  S
C2169      H2181   1.078       .  S
C2170      H2182   1.080       .  S
C2171      C2172   1.373       .  A
C2171      H2183   1.082       .  S
C2172      H2184   1.082       .  S
C2173      C2174   1.373       .  A
C2173      H2185   1.082       .  S
C2174      H2186   1.082       .  S
C2175      C2245   1.501       .  S
C2176      C2191   1.506       .  S
C2177      C2202   1.508       .  S
C2178      C2252   1.509       .  S
C2189      C2190   1.396       .  A
C2189      C2463   1.475       .  S
C2190      H2195   1.084       .  S
C2191      C2192   1.415       .  A
C2192      C2193   1.417       .  A
C2192      H2196   1.083       .  S
C2193      C2194   1.405       .  A
C2194      H2197   1.084       .  S
C2198      C2203   1.394       .  A
C2198      C2450   1.470       .  S
C2199      C2200   1.403       .  A
C2199      H2204   1.085       .  S
C2200      C2201   1.418       .  A
C2201      C2202   1.420       .  A
C2201      H2205   1.083       .  S
C2203      H2206   1.084       .  S
N2207      C2212   1.361       .  A
N2207      C2211   1.362       .  A
N2207      H2239   1.034       .  S
N2208      C2215   1.353       .  A
N2208      C2216   1.352       .  A
N2209      C2214   1.362       .  A
N2209      C2213   1.361       .  A
N2209      H2240   1.031       .  S
N2210      C2217   1.353       .  A
N2210      C2218   1.354       .  A
C2211      C2219   1.385       .  A
C2211      C2227   1.430       .  A
C2212      C2228   1.436       .  A
C2212      C2220   1.388       .  A
C2213      C2221   1.388       .  A
C2213      C2230   1.434       .  A
C2214      C2229   1.435       .  A
C2214      C2222   1.388       .  A
C2215      C2227   1.416       .  A
C2215      C2223   1.386       .  A
C2216      C2230   1.418       .  A
C2216      C2224   1.387       .  A
C2217      C2225   1.387       .  A
C2217      C2228   1.419       .  A
C2218      C2226   1.386       .  A
C2218      C2229   1.418       .  A
C2219      C2220   1.358       .  A
C2219      H2231   1.081       .  S
C2220      H2232   1.078       .  S
C2221      C2222   1.363       .  A
C2221      H2233   1.081       .  S
C2222      H2234   1.081       .  S
C2223      C2224   1.373       .  A
C2223      H2235   1.082       .  S
C2224      H2236   1.082       .  S
C2225      C2226   1.371       .  A
C2225      H2237   1.081       .  S
C2226      H2238   1.082       .  S
C2227      C2243   1.506       .  S
C2228      C2279   1.504       .  S
C2229      C2306   1.507       .  S
C2230      C2272   1.499       .  S
C2241      C2246   1.395       .  A
C2241      C2440   1.473       .  S
C2242      C2243   1.406       .  A
C2242      H2247   1.084       .  S
C2243      C2244   1.414       .  A
C2244      C2245   1.414       .  A
C2244      H2248   1.083       .  S
C2246      H2249   1.085       .  S
C2250      C2251   1.395       .  A
C2250      C2430   1.470       .  S
C2251      H2256   1.085       .  S
C2252      C2253   1.417       .  A
C2253      C2254   1.418       .  A
C2253      H2257   1.082       .  S
C2254      C2255   1.404       .  A
C2255      H2258   1.084       .  S
C2259      C2260   1.394       .  A
C2259      C2264   1.395       .  A
C2259      C2420   1.470       .  S
C2260      C2261   1.400       .  A
C2260      H2265   1.085       .  S
C2261      C2262   1.414       .  A
C2262      C2263   1.414       .  A
C2262      H2266   1.083       .  S
C2263      C2264   1.404       .  A
C2264      H2267   1.084       .  S
C2268      C2269   1.399       .  A
C2268      C2273   1.399       .  A
C2268      C2410   1.479       .  S
C2269      C2270   1.401       .  A
C2269      H2274   1.084       .  S
C2270      C2271   1.414       .  A
C2271      C2272   1.412       .  A
C2271      H2275   1.083       .  S
C2272      C2273   1.403       .  A
C2273      H2276   1.083       .  S
C2277      C2282   1.394   1_545  A
C2277      C2403   1.473   1_545  S
C2278      C2279   1.405       .  A
C2278      H2283   1.085       .  S
C2279      C2280   1.415       .  A
C2280      C2281   1.416       .  A
C2280      H2284   1.083       .  S
C2282      H2285   1.084       .  S
C2286      C2291   1.395   1_545  A
C2286      C2390   1.473   1_545  S
C2287      C2288   1.402       .  A
C2287      H2292   1.084       .  S
C2288      C2289   1.415       .  A
C2289      C2290   1.417       .  A
C2289      H2293   1.083       .  S
C2291      H2294   1.084       .  S
C2295      C2296   1.392       .  A
C2295      C2300   1.392       .  A
C2295      C2383   1.463       .  S
C2296      C2297   1.403       .  A
C2296      H2301   1.085       .  S
C2297      C2298   1.420       .  A
C2298      C2299   1.420       .  A
C2298      H2302   1.083       .  S
C2299      C2300   1.402       .  A
C2300      H2303   1.085       .  S
C2304      C2305   1.397       .  A
C2304      C2309   1.397       .  A
C2304      C2373   1.476       .  S
C2305      C2306   1.403       .  A
C2305      H2310   1.084       .  S
C2306      C2307   1.419       .  A
C2307      C2308   1.418       .  A
C2307      H2311   1.082       .  S
C2308      C2309   1.404       .  A
C2309      H2312   1.084       .  S
O2313      V2321   1.896       .  S
O2313      C2323   1.264       .  A
O2314      C2324   1.261       .  A
O2315      V2321   1.894       .  S
O2315      C2325   1.263       .  A
O2316      C2326   1.264       .  A
O2317      C2326   1.262       .  A
O2318      V2322   1.883       .  S
O2318      C2325   1.262       .  A
O2319      C2324   1.264       .  A
O2320      V2322   1.886       .  S
O2320      C2323   1.262       .  A
V2321      V2322   2.087       .  T
C2323      C2433   1.473       .  S
C2324      C2413   1.468       .  S
C2325      C2423   1.468       .  S
C2326      C2443   1.470       .  S
O2327      V2335   1.891       .  S
O2327      C2337   1.263       .  A
O2328      V2335   1.889       .  S
O2328      C2338   1.262       .  A
O2329      V2335   1.891       .  S
O2329      C2339   1.263       .  A
O2330      V2335   1.890       .  S
O2330      C2340   1.263       .  A
O2331      V2336   1.889       .  S
O2331      C2340   1.262       .  A
O2332      V2336   1.889       .  S
O2332      C2339   1.263       .  A
O2333      V2336   1.891       .  S
O2333      C2338   1.264       .  A
O2334      V2336   1.894       .  S
O2334      C2337   1.264       .  A
V2335      V2336   2.086       .  T
C2337      C2393   1.475       .  S
C2338      C2370   1.470       .  S
C2339      C2400   1.471       .  S
C2340      C2380   1.471       .  S
O2341      V2349   1.890       .  S
O2341      C2351   1.263       .  A
O2342      V2349   1.892       .  S
O2342      C2352   1.262       .  A
O2343      V2349   1.893       .  S
O2343      C2353   1.264       .  A
O2344      V2349   1.894       .  S
O2344      C2354   1.264       .  A
O2345      V2350   1.893       .  S
O2345      C2354   1.263       .  A
O2346      V2350   1.892       .  S
O2346      C2353   1.263       .  A
O2347      V2350   1.897       .  S
O2347      C2352   1.265       .  A
O2348      V2350   1.895       .  S
O2348      C2351   1.264       .  A
V2349      V2350   2.086       .  T
C2351      C2500   1.475       .  S
C2352      C2523   1.477       .  S
C2353      C2493   1.472       .  S
C2354      C2513   1.476       .  S
O2355      C2365   1.265       .  A
O2356      V2363   1.893       .  S
O2356      C2366   1.264       .  A
O2357      C2367   1.264       .  A
O2358      V2363   1.885       .  S
O2358      C2368   1.261       .  A
O2359      V2364   1.896       .  S
O2359      C2368   1.265       .  A
O2360      C2367   1.263       .  A
O2361      V2364   1.891       .  S
O2361      C2366   1.263       .  A
O2362      C2365   1.263       .  A
V2363      V2364   2.087       .  T
C2365      C2460   1.476       .  S
C2366      C2483   1.474       .  S
C2367      C2473   1.477       .  S
C2368      C2453   1.472       .  S
C2369      C2370   1.402       .  A
C2369      C2374   1.391       .  A
C2369      H2376   1.083       .  S
C2370      C2371   1.407       .  A
C2371      C2372   1.394       .  A
C2371      F2378   1.358       .  S
C2372      C2373   1.404       .  A
C2372      H2377   1.083       .  S
C2373      C2374   1.407       .  A
C2374      F2375   1.355       .  S
C2379      C2380   1.405       .  A
C2379      C2384   1.392       .  A
C2379      H2386   1.083       .  S
C2380      C2381   1.409       .  A
C2381      C2382   1.393       .  A
C2381      F2388   1.358       .  S
C2382      C2383   1.400       .  A
C2382      H2387   1.083       .  S
C2383      C2384   1.401       .  A
C2384      F2385   1.356       .  S
C2389      C2390   1.402       .  A
C2389      C2394   1.396       .  A
C2389      H2396   1.083       .  S
C2390      C2391   1.404       .  A
C2391      C2392   1.393       .  A
C2392      C2393   1.405       .  A
C2392      H2397   1.083       .  S
C2393      C2394   1.410       .  A
C2394      F2395   1.358       .  S
C2399      C2400   1.404       .  A
C2399      C2404   1.393       .  A
C2399      H2406   1.083       .  S
C2400      C2401   1.407       .  A
C2401      C2402   1.393       .  A
C2401      F2408   1.357       .  S
C2402      C2403   1.402       .  A
C2402      H2407   1.081       .  S
C2403      C2404   1.405       .  A
C2409      C2410   1.406       .  A
C2409      C2414   1.394       .  A
C2409      H2416   1.083       .  S
C2410      C2411   1.408       .  A
C2411      C2412   1.391       .  A
C2411      F2418   1.356       .  S
C2412      C2413   1.402       .  A
C2412      H2417   1.083       .  S
C2413      C2414   1.406       .  A
C2414      F2415   1.358       .  S
C2419      C2420   1.403       .  A
C2419      C2424   1.393       .  A
C2419      H2426   1.083       .  S
C2420      C2421   1.404       .  A
C2421      C2422   1.390       .  A
C2421      F2428   1.356       .  S
C2422      C2423   1.404       .  A
C2422      H2427   1.083       .  S
C2423      C2424   1.406       .  A
C2424      F2425   1.357       .  S
C2429      C2430   1.402       .  A
C2429      C2434   1.394       .  A
C2430      C2431   1.402       .  A
C2431      C2432   1.392       .  A
C2431      F2438   1.355       .  S
C2432      C2433   1.406       .  A
C2432      H2437   1.083       .  S
C2433      C2434   1.407       .  A
C2434      F2435   1.357       .  S
C2439      C2440   1.405       .  A
C2439      C2444   1.394       .  A
C2439      H2446   1.081       .  S
C2440      C2441   1.403       .  A
C2441      C2442   1.392       .  A
C2441      F2448   1.357       .  S
C2442      C2443   1.405       .  A
C2442      H2447   1.083       .  S
C2443      C2444   1.406       .  A
C2444      F2445   1.358       .  S
C2449      C2450   1.401       .  A
C2449      C2454   1.392       .  A
C2449      H2456   1.083       .  S
C2450      C2451   1.404       .  A
C2451      C2452   1.393       .  A
C2452      C2453   1.404       .  A
C2452      H2457   1.083       .  S
C2453      C2454   1.409       .  A
C2454      F2455   1.358       .  S
C2459      C2460   1.404       .  A
C2459      C2464   1.393       .  A
C2459      H2466   1.083       .  S
C2460      C2461   1.410       .  A
C2461      C2462   1.396       .  A
C2461      F2468   1.357       .  S
C2462      C2463   1.402       .  A
C2463      C2464   1.405       .  A
C2464      F2465   1.355       .  S
C2469      C2470   1.402       .  A
C2469      C2474   1.394       .  A
C2469      H2476   1.082       .  S
C2470      C2471   1.404       .  A
C2471      C2472   1.396       .  A
C2471      F2478   1.356       .  S
C2472      C2473   1.406       .  A
C2472      H2477   1.083       .  S
C2473      C2474   1.409       .  A
C2474      F2475   1.357       .  S
C2479      C2480   1.401       .  A
C2479      C2484   1.393       .  A
C2479      H2486   1.083       .  S
C2480      C2481   1.404       .  A
C2481      C2482   1.394       .  A
C2481      F2488   1.356       .  S
C2482      C2483   1.405       .  A
C2482      H2487   1.083       .  S
C2483      C2484   1.409       .  A
C2484      F2485   1.357       .  S
C2489      C2490   1.404       .  A
C2489      C2494   1.394       .  A
C2489      H2496   1.083       .  S
C2490      C2491   1.406       .  A
C2491      C2492   1.392       .  A
C2492      C2493   1.403       .  A
C2492      H2497   1.083       .  S
C2493      C2494   1.408       .  A
C2494      F2495   1.358       .  S
C2499      C2500   1.405       .  A
C2499      C2504   1.395       .  A
C2499      H2506   1.083       .  S
C2500      C2501   1.408       .  A
C2501      C2502   1.393       .  A
C2501      F2508   1.358       .  S
C2502      C2503   1.402       .  A
C2503      C2504   1.405       .  A
C2504      F2505   1.356       .  S
C2509      C2510   1.401       .  A
C2509      C2514   1.397       .  A
C2509      H2516   1.083       .  S
C2510      C2511   1.402       .  A
C2511      C2512   1.394       .  A
C2511      F2518   1.356       .  S
C2512      C2513   1.405       .  A
C2512      H2517   1.083       .  S
C2513      C2514   1.410       .  A
C2514      F2515   1.358       .  S
C2519      C2520   1.403       .  A
C2519      C2524   1.396       .  A
C2519      H2526   1.084       .  S
C2520      C2521   1.406       .  A
C2521      C2522   1.393       .  A
C2521      F2528   1.355       .  S
C2522      C2523   1.403       .  A
C2522      H2527   1.083       .  S
C2523      C2524   1.410       .  A
C2524      F2525   1.357       .  S
