geometry optimzed in LAMMPS
_audit_creation_date              2020-11-30 
_audit_creation_method            'lammps2cif' 
_symmetry_space_group_name_H-M    'P1' 
_symmetry_Int_Tables_number       1 
_symmetry_cell_setting            triclinic 
loop_ 
_symmetry_equiv_pos_as_xyz 
  x,y,z 
_cell_length_a                    64.41404741 
_cell_length_b                    64.87677436275878 
_cell_length_c                    64.87800630574493 
_cell_angle_alpha                 90.16236327149495 
_cell_angle_beta                  90.12919459960509 
_cell_angle_gamma                 90.02583013063253 
loop_ 
_atom_site_label 
_atom_site_type_symbol 
_atom_site_fract_x 
_atom_site_fract_y 
_atom_site_fract_z 
_atom_site_charge 
O1          O  0.60301186  0.66913778  0.64730880    -0.77300
C2          C  0.65847854  0.66785504  0.60598929     0.83800
O3          O  0.59027941  0.62526508  0.58620610    -0.78400
O4          O  0.65724580  0.59862479  0.60264791    -0.79900
O5          O  0.64451674  0.60894843  0.66964727    -0.79700
O6          O  0.60897529  0.64618849  0.67203234    -0.78300
Zn7        Zn  0.61519674  0.65606281  0.62147436     1.55700
O8          O  0.66961836  0.61721239  0.64771346    -0.79700
Cd9        Cd  0.61829253  0.62077777  0.65576261     1.59700
Cd10       Cd  0.60618799  0.60810221  0.60852491     1.59600
O11         O  0.59404108  0.60056891  0.65846267    -0.79700
O12         O  0.62277262  0.62755210  0.62640760    -1.90200
Cd13       Cd  0.65285149  0.62379625  0.62128999     1.59900
O14         O  0.58439590  0.59210349  0.62645022    -0.79600
O15         O  0.66529084  0.64953006  0.60785851    -0.78300
C16         C  0.58645091  0.64458778  0.58535959     0.84300
C17         C  0.60219843  0.66361888  0.66617166     0.83900
O18         O  0.64013201  0.67270515  0.61161516    -0.77200
C19         C  0.66367548  0.60982006  0.66487352     0.84700
O20         O  0.59409416  0.65722186  0.59844888    -0.77300
C21         C  0.58203726  0.59116588  0.64597942     0.84900
C22         C  0.64566937  0.58526757  0.59393633     0.85200
O23         O  0.62586995  0.58656039  0.59447109    -0.79700
O24         O  0.85377259  0.59951828  0.33165015    -0.77300
C25         C  0.89495275  0.65391623  0.33141042     0.83800
O26         O  0.91178595  0.58524766  0.37808438    -0.78400
O27         O  0.90407455  0.65325072  0.39847891    -0.79900
O28         O  0.83118492  0.64350387  0.39150451    -0.79700
O29         O  0.82777828  0.60786401  0.35247440    -0.78300
Zn30       Zn  0.87933899  0.61155143  0.34535204     1.55700
O31         O  0.85649954  0.66651924  0.38751255    -0.79700
Cd32       Cd  0.84370930  0.61696849  0.37865975     1.59700
Cd33       Cd  0.89023942  0.60338586  0.39395797     1.59600
O34         O  0.83926198  0.59284312  0.39861864    -0.79700
O35         O  0.87390702  0.62016109  0.37336310    -1.90200
Cd36       Cd  0.88131125  0.64976724  0.37637623     1.59900
O37         O  0.87045566  0.58350886  0.41034113    -0.79600
O38         O  0.89196048  0.66220318  0.34899243    -0.78300
C39         C  0.91310641  0.58132129  0.35883135     0.84300
C40         C  0.83445662  0.59961864  0.33591890     0.83900
O41         O  0.89052187  0.63502750  0.32811971    -0.77200
C42         C  0.83835712  0.66171956  0.39368692     0.84700
O43         O  0.90127098  0.58988588  0.34565751    -0.77300
C44         C  0.85074255  0.58124638  0.40961064     0.84900
C45         C  0.91138168  0.64187672  0.41274056     0.85200
O46         O  0.90664181  0.62278336  0.41409508    -0.79700
O47         O  0.89876025  0.41845124  0.14068745    -0.77300
C48         C  0.85500290  0.41900717  0.08841991     0.83800
O49         O  0.83977344  0.37089634  0.15299060    -0.78400
O50         O  0.85299781  0.35073963  0.08432031    -0.79900
O51         O  0.92211057  0.35915506  0.09622069    -0.79700
O52         O  0.92488960  0.39795440  0.13183779    -0.78300
Zn53       Zn  0.87303723  0.40434563  0.12956453     1.55700
O54         O  0.89857229  0.36688274  0.07232094    -0.79700
Cd55       Cd  0.90915404  0.37172492  0.12270195     1.59700
Cd56       Cd  0.86240375  0.35589738  0.13518627     1.59600
O57         O  0.91325568  0.35182477  0.14679749    -0.79700
O58         O  0.87900398  0.37698089  0.11946193    -1.90200
Cd59       Cd  0.87269694  0.37515088  0.08950916     1.59900
O60         O  0.88195231  0.33998370  0.15559742    -0.79600
O61         O  0.85901326  0.40217037  0.07900577    -0.78300
C62         C  0.83919605  0.38968683  0.15895361     0.84300
C63         C  0.91812818  0.41444618  0.14017020     0.83900
O64         O  0.86000901  0.42165081  0.10726429    -0.77200
C65         C  0.91603160  0.35913668  0.07749229     0.84700
O66         O  0.85186690  0.40305898  0.15207050    -0.77300
C67         C  0.90161108  0.34086520  0.15820729     0.84900
C68         C  0.84594628  0.33586235  0.09499864     0.85200
O69         O  0.84847141  0.33514746  0.11455191    -0.79700
C70         C  0.74790658  0.54689084  0.99631345     0.04400
C71         C  0.73355637  0.53518147  0.98490051    -0.11800
C72         C  0.73311351  0.51361715  0.98675170     0.01900
C73         C  0.74714471  0.50391578  0.00017274    -0.10300
C74         C  0.76157012  0.51547139  0.01159693     0.04400
C75         C  0.76195193  0.53698572  0.00956449    -0.09700
H76         H  0.72286763  0.54284273  0.97452385     0.10000
H77         H  0.74695911  0.48726827  0.00161814     0.07500
H78         H  0.77305465  0.54600704  0.01834713     0.07300
C79         C  0.04594591  0.49582189  0.25486640     0.04400
C80         C  0.03408809  0.48741248  0.23863367    -0.11800
C81         C  0.01237729  0.48746501  0.23943048     0.01900
C82         C  0.00231861  0.49603466  0.25648230    -0.10300
C83         C  0.01375514  0.50427887  0.27300989     0.04400
C84         C  0.03557570  0.50409762  0.27214499    -0.09700
H85         H  0.04167400  0.48108997  0.22514102     0.10000
H86         H  0.98549011  0.49618380  0.25689850     0.07500
H87         H  0.04439777  0.50993538  0.28513089     0.07300
O88         O  0.60266578  0.32998320  0.85282320    -0.77300
C89         C  0.65761125  0.33168860  0.89591107     0.83800
O90         O  0.58915252  0.37117616  0.91508193    -0.78400
O91         O  0.65578596  0.40131572  0.89843077    -0.79900
O92         O  0.64418106  0.38985826  0.83109875    -0.79700
O93         O  0.60626442  0.35398690  0.82869312    -0.78300
Zn94       Zn  0.61545147  0.34288259  0.87839562     1.55700
O95         O  0.66929036  0.38311531  0.85362232    -0.79700
Cd96       Cd  0.61764133  0.37884774  0.84522804     1.59700
Cd97       Cd  0.60488150  0.38945029  0.89337781     1.59600
O98         O  0.59536100  0.40126910  0.84369649    -0.79700
O99         O  0.62232327  0.37157024  0.87452065    -1.90200
Cd100      Cd  0.65240487  0.37576428  0.88000673     1.59900
O101        O  0.58317455  0.40567641  0.87565658    -0.79600
O102        O  0.66445161  0.35012983  0.89483303    -0.78300
C103        C  0.58758012  0.35154951  0.91563667     0.84300
C104        C  0.60040330  0.33609137  0.83427796     0.83900
O105        O  0.64014546  0.32664019  0.88815395    -0.77200
C106        C  0.66330795  0.38994899  0.83615709     0.84700
O107        O  0.59600048  0.34009127  0.90208985    -0.77300
C108        C  0.58264418  0.40940608  0.85632627     0.84900
C109        C  0.64379642  0.41357641  0.90809563     0.85200
O110        O  0.62409284  0.41107400  0.90846091    -0.79700
O111        O  0.42255214  0.12701924  0.89657022    -0.77300
C112        C  0.41927262  0.07045821  0.85715668     0.83800
O113        O  0.38063859  0.14297400  0.83693579    -0.78400
O114        O  0.34956697  0.07707685  0.84955818    -0.79900
O115        O  0.35875698  0.08905502  0.91880093    -0.79700
O116        O  0.39960141  0.12208851  0.92163667    -0.78300
Zn117      Zn  0.40902149  0.11426915  0.87130936     1.55700
O118        O  0.36401021  0.06402554  0.89583611    -0.79700
Cd119      Cd  0.37323085  0.11425918  0.90525254     1.59700
Cd120      Cd  0.36197205  0.12713808  0.85778079     1.59600
O121        O  0.35462592  0.14002767  0.90763370    -0.79700
O122        O  0.37983196  0.10891934  0.87577169    -1.90200
Cd123      Cd  0.37425080  0.07927976  0.86976797     1.59900
O124        O  0.34604218  0.14900579  0.87551647    -0.79600
O125        O  0.40038517  0.06449753  0.85780265    -0.78300
C126        C  0.40036349  0.14335568  0.83517602     0.84300
C127        C  0.41728367  0.12833088  0.91547292     0.83900
O128        O  0.42450458  0.08846044  0.86312783    -0.77200
C129        C  0.35722471  0.07021795  0.91323345     0.84700
O130        O  0.41221225  0.13338095  0.84731452    -0.77300
C131        C  0.34540271  0.15191427  0.89497921     0.84900
C132        C  0.33779812  0.08984149  0.84025373     0.85200
O133        O  0.34046378  0.10931774  0.84144671    -0.79700
C134        C  0.50263138  0.23983297  0.04367465     0.04400
C135        C  0.49452938  0.22241852  0.03336805    -0.11800
C136        C  0.49462434  0.22126395  0.01178521     0.01900
C137        C  0.50341288  0.23731339  0.00038058    -0.10300
C138        C  0.51198675  0.25464320  0.01019153     0.04400
C139        C  0.51128069  0.25590594  0.03181867    -0.09700
H140        H  0.48854097  0.20947045  0.04199106     0.10000
H141        H  0.50329523  0.23639282  0.98369393     0.07500
H142        H  0.51778338  0.26931765  0.03939546     0.07300
C143        C  0.49693601  0.24155060  0.70384450     0.04400
C144        C  0.48309788  0.22944948  0.71548480    -0.11800
C145        C  0.48467132  0.22880685  0.73709149     0.01900
C146        C  0.49984425  0.24076032  0.74697809    -0.10300
C147        C  0.51388266  0.25269561  0.73572314     0.04400
C148        C  0.51234776  0.25314058  0.71413423    -0.09700
H149        H  0.47160462  0.22000725  0.70771018     0.10000
H150        H  0.50073911  0.24084199  0.76366876     0.07500
H151        H  0.52318742  0.26238004  0.70537135     0.07300
C152        C  0.55368776  0.98876924  0.74978137     0.04400
C153        C  0.54327774  0.99711720  0.76695402    -0.11800
C154        C  0.52152200  0.99626819  0.76809010     0.01900
C155        C  0.51028467  0.98712436  0.75200870    -0.10300
C156        C  0.52040124  0.97865923  0.73487640     0.04400
C157        C  0.54212360  0.97978800  0.73368422    -0.09700
H158        H  0.55204671  0.00426598  0.77932921     0.10000
H159        H  0.49347109  0.98687444  0.75272569     0.07500
H160        H  0.55008069  0.97309920  0.72057017     0.07300
C161        C  0.95230080  0.99848777  0.25221125     0.04400
C162        C  0.96452458  0.99082702  0.26859774    -0.11800
C163        C  0.98626517  0.99031038  0.26720835     0.01900
C164        C  0.99597482  0.99780096  0.24949617    -0.10300
C165        C  0.98426328  0.00554915  0.23305358     0.04400
C166        C  0.96249115  0.00555579  0.23431191    -0.09700
H167        H  0.95729196  0.98550332  0.28265260     0.10000
H168        H  0.01277828  0.99757742  0.24850480     0.07500
H169        H  0.95365947  0.01068614  0.22110196     0.07300
C170        C  0.25287164  0.28412054  0.99620023     0.04400
C171        C  0.24247964  0.27338273  0.01209231    -0.11800
C172        C  0.24231497  0.25172904  0.01264152     0.01900
C173        C  0.25400765  0.24072359  0.99812735    -0.10300
C174        C  0.26470186  0.25089972  0.98238375     0.04400
C175        C  0.26339606  0.27247046  0.98100916    -0.09700
H176        H  0.23415760  0.28172504  0.02393111     0.10000
H177        H  0.25453119  0.22404620  0.99888597     0.07500
H178        H  0.27073579  0.27999878  0.96809023     0.07300
C179        C  0.24378154  0.94330792  0.99839711     0.04400
C180        C  0.22694571  0.95423088  0.00679975    -0.11800
C181        C  0.22656975  0.97583723  0.00617030     0.01900
C182        C  0.24320123  0.98640989  0.99722247    -0.10300
C183        C  0.25999838  0.97581161  0.98849874     0.04400
C184        C  0.26038471  0.95415276  0.98940536    -0.09700
H185        H  0.21410802  0.94591205  0.01365401     0.10000
H186        H  0.24311112  0.00311749  0.99712774     0.07500
H187        H  0.27310431  0.94572130  0.98247248     0.07300
C188        C  0.29324481  0.98952116  0.24399532     0.04400
C189        C  0.28157191  0.00299698  0.23158819    -0.11800
C190        C  0.25979483  0.00343212  0.23294100     0.01900
C191        C  0.24984759  0.99022286  0.24690981    -0.10300
C192        C  0.26123894  0.97659709  0.25932150     0.04400
C193        C  0.28295960  0.97626783  0.25773338    -0.09700
H194        H  0.28946850  0.01327488  0.22104965     0.10000
H195        H  0.23310424  0.99064820  0.24828915     0.07500
H196        H  0.29188786  0.96593477  0.26740107     0.07300
C197        C  0.99849443  0.24600107  0.94830984     0.04400
C198        C  0.00835892  0.23008608  0.95930462    -0.11800
C199        C  0.00802627  0.23001941  0.98098243     0.01900
C200        C  0.99845111  0.24629460  0.99155228    -0.10300
C201        C  0.98910456  0.26246876  0.98076256     0.04400
C202        C  0.98888200  0.26217034  0.95915157    -0.09700
H203        H  0.01573962  0.21754278  0.95104133     0.10000
H204        H  0.99830634  0.24640249  0.00827307     0.07500
H205        H  0.98130456  0.27450989  0.95079124     0.07300
C206        C  0.00329146  0.24995364  0.29196517     0.04400
C207        C  0.01955008  0.23957659  0.28170037    -0.11800
C208        C  0.02070204  0.23917125  0.26016178     0.01900
C209        C  0.00601482  0.25007450  0.24864411    -0.10300
C210        C  0.99019606  0.26131870  0.25832730     0.04400
C211        C  0.98847293  0.26065799  0.27995865    -0.09700
H212        H  0.03156654  0.23176543  0.29036912     0.10000
H213        H  0.00664248  0.24946708  0.23196703     0.07500
H214        H  0.97559815  0.26846419  0.28723857     0.07300
O215        O  0.09977286  0.07519168  0.13808438    -0.77300
C216        C  0.13913735  0.07798330  0.08173028     0.83800
O217        O  0.16139534  0.11508514  0.15359401    -0.78400
O218        O  0.14695099  0.14713701  0.08854243    -0.79900
O219        O  0.07763829  0.13802532  0.09969978    -0.79700
O220        O  0.07473304  0.09828141  0.13333743    -0.78300
Zn221      Zn  0.12506455  0.08817272  0.12523277     1.55700
O222        O  0.10076635  0.13209125  0.07497625    -0.79700
Cd223      Cd  0.09149739  0.12413294  0.12509318     1.59700
Cd224      Cd  0.13991748  0.13429779  0.13854857     1.59600
O225        O  0.08958283  0.14325439  0.15028304    -0.79700
O226        O  0.12113830  0.11717602  0.12018542    -1.90200
Cd227      Cd  0.12700157  0.12258208  0.09068161     1.59900
O228        O  0.12199352  0.14977521  0.16072391    -0.79600
O229        O  0.13930554  0.09682393  0.07616125    -0.78300
C230        C  0.16257076  0.09541457  0.15350994     0.84300
C231        C  0.08082407  0.08064884  0.13948266     0.83900
O232        O  0.13248937  0.07264250  0.09939324    -0.77200
C233        C  0.08321071  0.13896002  0.08086755     0.84700
O234        O  0.14950474  0.08433313  0.14375656    -0.77300
C235        C  0.10233500  0.15156080  0.16285443     0.84900
C236        C  0.15657408  0.15882779  0.10115696     0.85200
O237        O  0.15593379  0.15607850  0.12066143    -0.79700
O238        O  0.42286218  0.85170314  0.59732650    -0.77300
C239        C  0.42407013  0.90690762  0.63730005     0.83800
O240        O  0.37718925  0.84129015  0.65708468    -0.78400
O241        O  0.35582055  0.90797958  0.64477084    -0.79900
O242        O  0.36264343  0.89529282  0.57472566    -0.79700
O243        O  0.40173613  0.86059544  0.57172816    -0.78300
Zn244      Zn  0.40950918  0.86454052  0.62256882     1.55700
O245        O  0.36958313  0.91974005  0.59792314    -0.79700
Cd246      Cd  0.37548244  0.86921493  0.58773181     1.59700
Cd247      Cd  0.36093874  0.85736643  0.63441432     1.59600
O248        O  0.35550275  0.84477181  0.58440638    -0.79700
O249        O  0.38142960  0.87340957  0.61736997    -1.90200
Cd250      Cd  0.37902243  0.90336737  0.62350594     1.59900
O251        O  0.34445770  0.83638018  0.61591239    -0.79600
O252        O  0.40644727  0.91547812  0.63489775    -0.78300
C253        C  0.39665269  0.83828846  0.65920693     0.84300
C254        C  0.41848963  0.85235799  0.57814682     0.83900
O255        O  0.42710425  0.88816164  0.63229997    -0.77200
C256        C  0.36226374  0.91407993  0.58054724     0.84700
O257        O  0.40993668  0.84530855  0.64655474    -0.77300
C258        C  0.34484561  0.83346579  0.59642296     0.84900
C259        C  0.34149884  0.89691168  0.65256475     0.85200
O260        O  0.34060501  0.87747568  0.64941693    -0.79700
O261        O  0.10294637  0.91839582  0.36142128    -0.77300
C262        C  0.14172831  0.91488063  0.41841593     0.83800
O263        O  0.16165964  0.87377770  0.34723007    -0.78400
O264        O  0.14801081  0.84634380  0.41298424    -0.79900
O265        O  0.07820455  0.85634606  0.40159052    -0.79700
O266        O  0.07655705  0.89758429  0.36882806    -0.78300
Zn267      Zn  0.12778164  0.90427899  0.37465617     1.55700
O268        O  0.10177812  0.86093684  0.42632760    -0.79700
Cd269      Cd  0.09187987  0.87068098  0.37642170     1.59700
Cd270      Cd  0.13890092  0.85670655  0.36281528     1.59600
O271        O  0.08816093  0.85232841  0.35091055    -0.79700
O272        O  0.12191812  0.87575605  0.38080350    -1.90200
Cd273      Cd  0.12780304  0.87060043  0.41041111     1.59900
O274        O  0.11973279  0.84218856  0.34100240    -0.79600
O275        O  0.14015980  0.89634656  0.42466838    -0.78300
C276        C  0.16455032  0.89326140  0.34668600     0.84300
C277        C  0.08354791  0.91432691  0.36129284     0.83900
O278        O  0.13631885  0.91996723  0.40021570    -0.77200
C279        C  0.08410478  0.85446251  0.42027719     0.84700
O280        O  0.15255703  0.90576364  0.35604696    -0.77300
C281        C  0.10003591  0.84261162  0.33859644     0.84900
C282        C  0.15591815  0.83315295  0.40071621     0.85200
O283        O  0.15353417  0.83445033  0.38118358    -0.79700
C284        C  0.99959294  0.74236359  0.54864119     0.04400
C285        C  0.00945226  0.75862189  0.53808785    -0.11800
C286        C  0.00957619  0.75917660  0.51644843     0.01900
C287        C  0.00023182  0.74311255  0.50533298    -0.10300
C288        C  0.99042723  0.72675050  0.51544749     0.04400
C289        C  0.98992927  0.72655751  0.53710446    -0.09700
H290        H  0.01685649  0.77095062  0.54666497     0.10000
H291        H  0.00038997  0.74347569  0.48862056     0.07500
H292        H  0.98190862  0.71416728  0.54490867     0.07300
C293        C  0.24815910  0.04561462  0.50546964     0.04400
C294        C  0.26369811  0.03393772  0.51520850    -0.11800
C295        C  0.26193973  0.01240918  0.51656601     0.01900
C296        C  0.24425451  0.00269235  0.50842396    -0.10300
C297        C  0.22871912  0.01411420  0.49858743     0.04400
C298        C  0.23068521  0.03557848  0.49716849    -0.09700
H299        H  0.27701928  0.04164653  0.52193476     0.10000
H300        H  0.24298984  0.98603113  0.50886258     0.07500
H301        H  0.21881503  0.04439900  0.48927339     0.07300
C302        C  0.25307196  0.69976176  0.49546452     0.04400
C303        C  0.24220971  0.71044059  0.47986250    -0.11800
C304        C  0.24217464  0.73200734  0.47919836     0.01900
C305        C  0.25371948  0.74314704  0.49369696    -0.10300
C306        C  0.26483668  0.73301168  0.50924374     0.04400
C307        C  0.26387732  0.71140220  0.51050772    -0.09700
H308        H  0.23391714  0.70214709  0.46791805     0.10000
H309        H  0.25367761  0.75984869  0.49314508     0.07500
H310        H  0.27171211  0.70384154  0.52314364     0.07300
C311        C  0.00042751  0.74908005  0.20516425     0.04400
C312        C  0.01428766  0.76108788  0.21694509    -0.11800
C313        C  0.01385436  0.76037969  0.23859499     0.01900
C314        C  0.99948605  0.74738738  0.24833760    -0.10300
C315        C  0.98546686  0.73550744  0.23682265     0.04400
C316        C  0.98590447  0.73646306  0.21526060    -0.09700
H317        H  0.02535568  0.77098887  0.20925706     0.10000
H318        H  0.99911193  0.74654167  0.26502067     0.07500
H319        H  0.97503371  0.72727763  0.20635790     0.07300
C320        C  0.20392690  0.99687480  0.74025664     0.04400
C321        C  0.21522850  0.01066584  0.75288486    -0.11800
C322        C  0.23701793  0.00969434  0.75382505     0.01900
C323        C  0.24746037  0.99505645  0.74180072    -0.10300
C324        C  0.23655441  0.98124372  0.72927231     0.04400
C325        C  0.21486002  0.98241130  0.72816872    -0.09700
H326        H  0.20708075  0.02160296  0.76257932     0.10000
H327        H  0.26427415  0.99433553  0.74217894     0.07500
H328        H  0.20656938  0.97190680  0.71808692     0.07300
C329        C  0.75123655  0.20055114  0.99862171     0.04400
C330        C  0.76455996  0.21151118  0.01190643    -0.11800
C331        C  0.76426653  0.23313476  0.01223320     0.01900
C332        C  0.75117345  0.24370462  0.99864051    -0.10300
C333        C  0.73824724  0.23302621  0.98488263     0.04400
C334        C  0.73790097  0.21137828  0.98526729    -0.09700
H335        H  0.77468624  0.20321700  0.02234582     0.10000
H336        H  0.75118389  0.26042148  0.99862977     0.07500
H337        H  0.72783945  0.20298928  0.97477195     0.07300
C338        C  0.49448544  0.75056444  0.79656393     0.04400
C339        C  0.50964547  0.73950939  0.78555836    -0.11800
C340        C  0.51068043  0.74099838  0.76400881     0.01900
C341        C  0.49605184  0.75301441  0.75349781    -0.10300
C342        C  0.48064873  0.76372299  0.76423002     0.04400
C343        C  0.47989944  0.76256362  0.78577390    -0.09700
H344        H  0.52115149  0.73052266  0.79379021     0.10000
H345        H  0.49658518  0.75399069  0.73682250     0.07500
H346        H  0.46819839  0.77118222  0.79412299     0.07300
C347        C  0.50155967  0.74319104  0.44708219     0.04400
C348        C  0.50899983  0.72596023  0.45817886    -0.11800
C349        C  0.50925483  0.72604229  0.47987952     0.01900
C350        C  0.50183849  0.74339704  0.49048634    -0.10300
C351        C  0.49409741  0.76046917  0.47983932     0.04400
C352        C  0.49423046  0.76040935  0.45824504    -0.09700
H353        H  0.51413112  0.71227036  0.45011001     0.10000
H354        H  0.50204117  0.74362705  0.50720155     0.07500
H355        H  0.48881280  0.77399877  0.45023548     0.07300
C356        C  0.75930752  0.79347369  0.50573232     0.04400
C357        C  0.76985682  0.78161030  0.49088882    -0.11800
C358        C  0.76952388  0.76002287  0.49188187     0.01900
C359        C  0.75902626  0.75024468  0.50799408    -0.10300
C360        C  0.74848606  0.76186321  0.52287655     0.04400
C361        C  0.74847791  0.78341530  0.52159257    -0.09700
H362        H  0.77801284  0.78910799  0.47838501     0.10000
H363        H  0.75853231  0.73354041  0.50858828     0.07500
H364        H  0.73966357  0.79228617  0.53270572     0.07300
C365        C  0.45334774  0.49729685  0.74928805     0.04400
C366        C  0.46389815  0.48781532  0.76577198    -0.11800
C367        C  0.48562620  0.48791220  0.76671894     0.01900
C368        C  0.49693681  0.49752359  0.75102251    -0.10300
C369        C  0.48684198  0.50724230  0.73451017     0.04400
C370        C  0.46505155  0.50667042  0.73351859    -0.09700
H371        H  0.45526436  0.48093097  0.77830554     0.10000
H372        H  0.51375359  0.49744281  0.75169249     0.07500
H373        H  0.45724587  0.51394285  0.72068847     0.07300
C374        C  0.79215688  0.49744149  0.74635536     0.04400
C375        C  0.78132040  0.51480947  0.73897569    -0.11800
C376        C  0.75958678  0.51593535  0.74019975     0.01900
C377        C  0.74856726  0.49956390  0.74911447    -0.10300
C378        C  0.75904964  0.48233184  0.75685150     0.04400
C379        C  0.78072323  0.48118122  0.75520082    -0.09700
H380        H  0.78975824  0.52770666  0.73254326     0.10000
H381        H  0.73177598  0.50016754  0.75002046     0.07500
H382        H  0.78848335  0.46738031  0.76048244     0.07300
C383        C  0.74605193  0.45115921  0.50235082     0.04400
C384        C  0.76095108  0.46249468  0.49112927    -0.11800
C385        C  0.76112367  0.48418726  0.49178760     0.01900
C386        C  0.74652302  0.49444612  0.50410351    -0.10300
C387        C  0.73159950  0.48353417  0.51530227     0.04400
C388        C  0.73163132  0.46191653  0.51466709    -0.09700
H389        H  0.77186157  0.45451243  0.48124684     0.10000
H390        H  0.74672599  0.51113413  0.50499385     0.07500
H391        H  0.72023511  0.45353393  0.52357694     0.07300
C392        C  0.70558847  0.48874441  0.24925635     0.04400
C393        C  0.71755722  0.50366157  0.25973840    -0.11800
C394        C  0.73938510  0.50241221  0.25998539     0.01900
C395        C  0.74901990  0.48574620  0.25004539    -0.10300
C396        C  0.73737203  0.47051686  0.23996442     0.04400
C397        C  0.71566474  0.47217495  0.23940723    -0.09700
H398        H  0.70984402  0.51622413  0.26761779     0.10000
H399        H  0.76581939  0.48477716  0.24972144     0.07500
H400        H  0.70662546  0.46035575  0.23168866     0.07300
O401        O  0.11577971  0.35177793  0.66927298    -0.77300
C402        C  0.16705795  0.39340431  0.65929834     0.83800
O403        O  0.08830536  0.40154990  0.62016722    -0.78400
O404        O  0.16165879  0.39628144  0.59583702    -0.79900
O405        O  0.14645536  0.32401799  0.60745865    -0.79700
O406        O  0.11207083  0.32614942  0.64679329    -0.78300
Zn407      Zn  0.12337420  0.37662986  0.65170961     1.55700
O408        O  0.17247241  0.34666453  0.60590833    -0.79700
Cd409      Cd  0.12167014  0.33969231  0.61972994     1.59700
Cd410      Cd  0.11116694  0.38576765  0.60343272     1.59600
O411        O  0.09875723  0.33586831  0.59814545    -0.79700
O412        O  0.12857332  0.36921229  0.62331282    -1.90200
Cd413      Cd  0.15859357  0.37331140  0.61742171     1.59900
O414        O  0.09649648  0.36616695  0.58214815    -0.79600
O415        O  0.17400994  0.38508677  0.64286511    -0.78300
C416        C  0.08569648  0.40296934  0.63965721     0.84300
C417        C  0.11080699  0.33318534  0.66509780     0.83900
O418        O  0.14793153  0.39194435  0.66419980    -0.77200
C419        C  0.16493759  0.32878249  0.60243940     0.84700
O420        O  0.09826956  0.39466984  0.65233753    -0.77300
C421        C  0.09206969  0.34701703  0.58346247     0.84900
C422        C  0.14950369  0.40820587  0.58594363     0.85200
O423        O  0.12976799  0.40659727  0.58717696    -0.79700
O424        O  0.59622930  0.13015728  0.42619858    -0.77300
C425        C  0.63420810  0.07543867  0.41802338     0.83800
O426        O  0.64795845  0.15402561  0.38003008    -0.78400
O427        O  0.64016234  0.08107992  0.35389445    -0.79900
O428        O  0.56646830  0.09766737  0.36862539    -0.79700
O429        O  0.57218717  0.13699853  0.40253294    -0.78300
Zn430      Zn  0.62097829  0.11997026  0.41003903     1.55700
O431        O  0.58952563  0.07263115  0.36370360    -0.79700
Cd432      Cd  0.58442671  0.12269062  0.37687247     1.59700
Cd433      Cd  0.63221161  0.13162237  0.36277653     1.59600
O434        O  0.58206929  0.14174544  0.35178969    -0.79700
O435        O  0.61387655  0.11501147  0.38148726    -1.90200
Cd436      Cd  0.61685141  0.08519589  0.37517697     1.59900
O437        O  0.61431544  0.14620990  0.34027203    -0.79600
O438        O  0.62691190  0.06920951  0.40081458    -0.78300
C439        C  0.64988772  0.15609072  0.39953766     0.84300
C440        C  0.57876541  0.13785233  0.42106445     0.83900
O441        O  0.63334911  0.09440783  0.42324834    -0.77200
C442        C  0.57102089  0.07955972  0.36251751     0.84700
O443        O  0.64120789  0.14355614  0.41193085    -0.77300
C444        C  0.59473363  0.14879690  0.33852267     0.84900
C445        C  0.65363532  0.09267750  0.34541498     0.85200
O446        O  0.65334324  0.11224353  0.34780367    -0.79700
C447        C  0.49646048  0.25260696  0.54867254     0.04400
C448        C  0.48642839  0.26863053  0.53782299    -0.11800
C449        C  0.48784870  0.26980639  0.51618745     0.01900
C450        C  0.49871426  0.25441668  0.50553211    -0.10300
C451        C  0.50926722  0.23873104  0.51599242     0.04400
C452        C  0.50809134  0.23795757  0.53756438    -0.09700
H453        H  0.47739885  0.28001161  0.54611403     0.10000
H454        H  0.49850763  0.25439309  0.48883827     0.07500
H455        H  0.51638611  0.22598251  0.54576405     0.07300
O456        O  0.39367100  0.35786996  0.32295515    -0.77300
C457        C  0.33563591  0.39345312  0.33294304     0.83800
O458        O  0.41467933  0.40723193  0.37090986    -0.78400
O459        O  0.34266903  0.39550498  0.39870813    -0.79900
O460        O  0.35881685  0.32401263  0.37811303    -0.79700
O461        O  0.39908913  0.33223694  0.34501630    -0.78300
Zn462      Zn  0.38066396  0.38070529  0.33979142     1.55700
O463        O  0.33383500  0.34690268  0.38406311    -0.79700
Cd464      Cd  0.38407239  0.34263148  0.37119270     1.59700
Cd465      Cd  0.39334360  0.38967019  0.38751113     1.59600
O466        O  0.40321295  0.33933162  0.39639658    -0.79700
O467        O  0.37633744  0.37216323  0.36808716    -1.90200
Cd468      Cd  0.34651009  0.37478495  0.37509651     1.59900
O469        O  0.40906037  0.37098055  0.40868370    -0.79600
O470        O  0.33017444  0.38750125  0.35082548    -0.78300
C471        C  0.41467984  0.41164841  0.35174386     0.84300
C472        C  0.40113585  0.34017202  0.32715849     0.83900
O473        O  0.35413841  0.39119366  0.32635745    -0.77200
C474        C  0.34054005  0.32841247  0.38422615     0.84700
O475        O  0.40179026  0.40347613  0.33922772    -0.77300
C476        C  0.41109314  0.35141683  0.40980722     0.84900
C477        C  0.35429699  0.40898559  0.40714739     0.85200
O478        O  0.37380859  0.40978810  0.40371579    -0.79700
C479        C  0.54876173  0.49296866  0.24635281     0.04400
C480        C  0.53770423  0.50079556  0.22929741    -0.11800
C481        C  0.51585487  0.50150631  0.22933905     0.01900
C482        C  0.50516264  0.49431877  0.24674003    -0.10300
C483        C  0.51584261  0.48649869  0.26389450     0.04400
C484        C  0.53761390  0.48589549  0.26359723    -0.09700
H485        H  0.54609382  0.50612513  0.21587933     0.10000
H486        H  0.48837054  0.49497019  0.24705138     0.07500
H487        H  0.54585206  0.48037332  0.27706317     0.07300
C488        C  0.49476573  0.75567809  0.95205226     0.04400
C489        C  0.48542767  0.74002095  0.96390490    -0.11800
C490        C  0.48493208  0.74131625  0.98554626     0.01900
C491        C  0.49459339  0.75811177  0.99530714    -0.10300
C492        C  0.50368719  0.77398870  0.98383860     0.04400
C493        C  0.50342843  0.77283792  0.96226027    -0.09700
H494        H  0.47851759  0.72680031  0.95632262     0.10000
H495        H  0.49555604  0.75856630  0.01197145     0.07500
H496        H  0.50993568  0.78544810  0.95349621     0.07300
O497        O  0.36190684  0.57142352  0.10258239    -0.77300
C498        C  0.41843001  0.58190642  0.13900380     0.83800
O499        O  0.33645189  0.61774054  0.15056851    -0.78400
O500        O  0.40781523  0.64458198  0.14696151    -0.79900
O501        O  0.39562920  0.63203602  0.07232612    -0.79700
O502        O  0.36045887  0.59204119  0.07519131    -0.78300
Zn503      Zn  0.37305373  0.58818323  0.12636959     1.55700
O504        O  0.41878794  0.63838873  0.09708485    -0.79700
Cd505      Cd  0.37046457  0.61980957  0.08814676     1.59700
Cd506      Cd  0.35817902  0.63539495  0.13480973     1.59600
O507        O  0.34752802  0.64183427  0.08445521    -0.79700
O508        O  0.37669518  0.61662390  0.11814610    -1.90200
Cd509      Cd  0.40606700  0.62444948  0.12279616     1.59900
O510        O  0.34202894  0.65546580  0.11554029    -0.79600
O511        O  0.42361564  0.59980593  0.13283690    -0.78300
C512        C  0.33682186  0.59859846  0.15498542     0.84300
C513        C  0.35742490  0.57457993  0.08370661     0.83900
O514        O  0.39980462  0.57534261  0.13744765    -0.77200
C515        C  0.41280703  0.63979835  0.07837896     0.84700
O516        O  0.35074749  0.58655502  0.14791985    -0.77300
C517        C  0.33891135  0.65520226  0.09608637     0.84900
C518        C  0.39516525  0.65352733  0.15905262     0.85200
O519        O  0.37552304  0.65206332  0.15664642    -0.79700
C520        C  0.24860144  0.54259891  0.49336703     0.04400
C521        C  0.23396008  0.53116281  0.50488166    -0.11800
C522        C  0.23275602  0.50955184  0.50321547     0.01900
C523        C  0.24712204  0.49926022  0.49070355    -0.10300
C524        C  0.26212391  0.51009267  0.47955528     0.04400
C525        C  0.26257351  0.53167249  0.48060803    -0.09700
H526        H  0.22345494  0.53892379  0.51523121     0.10000
H527        H  0.24703725  0.48256776  0.49002864     0.07500
H528        H  0.27366152  0.53979470  0.47109986     0.07300
O529        O  0.67460756  0.88824546  0.13552881    -0.77300
C530        C  0.66244236  0.83218870  0.09994077     0.83800
O531        O  0.62648883  0.91240721  0.08722219    -0.78400
O532        O  0.59908338  0.84147635  0.09518679    -0.79900
O533        O  0.61261796  0.85746876  0.16804400    -0.79700
O534        O  0.65419592  0.89005655  0.16319878    -0.78300
Zn535      Zn  0.65663037  0.87726814  0.11250977     1.55700
O536        O  0.60834742  0.83176316  0.14551458    -0.79700
Cd537      Cd  0.62579977  0.88113327  0.15118589     1.59700
Cd538      Cd  0.60922301  0.89163274  0.10489174     1.59600
O539        O  0.60511137  0.90507754  0.15476303    -0.79700
O540        O  0.62832109  0.87363774  0.12158644    -1.90200
Cd541      Cd  0.62061722  0.84402754  0.11852450     1.59900
O542        O  0.58935915  0.90809844  0.12426053    -0.79600
O543        O  0.64531345  0.82662454  0.10800549    -0.78300
C544        C  0.64579420  0.91207423  0.08279290     0.84300
C545        C  0.67167391  0.89276147  0.15442155     0.83900
O546        O  0.66838121  0.85093539  0.10051297    -0.77200
C547        C  0.60610509  0.83946122  0.16349459     0.84700
O548        O  0.65800254  0.89888446  0.09074166    -0.77300
C549        C  0.59086096  0.91258892  0.14339096     0.84900
C550        C  0.58987117  0.85389633  0.08303897     0.85200
O551        O  0.59184928  0.87341918  0.08472646    -0.79700
C552        C  0.74445353  0.70212675  0.98684782     0.04400
C553        C  0.75528717  0.71292762  0.97147091    -0.11800
C554        C  0.75482411  0.73452453  0.97081476     0.01900
C555        C  0.74332412  0.74537073  0.98557479    -0.10300
C556        C  0.73228942  0.73498425  0.00099259     0.04400
C557        C  0.73284622  0.71331924  0.00148926    -0.09700
H558        H  0.76399462  0.70457954  0.95987802     0.10000
H559        H  0.74366499  0.76207716  0.98554869     0.07500
H560        H  0.72441514  0.70518716  0.01337575     0.07300
O561        O  0.88686474  0.14431924  0.66519974    -0.77300
C562        C  0.83298067  0.10692506  0.65685849     0.83800
O563        O  0.91143156  0.09121587  0.61923722    -0.78400
O564        O  0.83882987  0.09864981  0.59459766    -0.79900
O565        O  0.85589577  0.17195081  0.60256347    -0.79700
O566        O  0.89029708  0.16984314  0.64273219    -0.78300
Zn567      Zn  0.87769539  0.11960070  0.64869743     1.55700
O568        O  0.82974934  0.14947589  0.60084918    -0.79700
Cd569      Cd  0.88016202  0.15577034  0.61576693     1.59700
Cd570      Cd  0.89000016  0.10809976  0.60165316     1.59600
O571        O  0.90293196  0.15759345  0.59397998    -0.79700
O572        O  0.87285189  0.12644247  0.62021040    -1.90200
Cd573      Cd  0.84267476  0.12332287  0.61416620     1.59900
O574        O  0.90652617  0.12615556  0.58046981    -0.79600
O575        O  0.82637929  0.11480015  0.64012163    -0.78300
C576        C  0.91321785  0.08974334  0.63879745     0.84300
C577        C  0.89194984  0.16280754  0.66100879     0.83900
O578        O  0.85220806  0.10716088  0.66154859    -0.77200
C579        C  0.83745061  0.16720981  0.59722949     0.84700
O580        O  0.90102740  0.09940707  0.65084837    -0.77300
C581        C  0.91047764  0.14548560  0.58046866     0.84900
C582        C  0.85064189  0.08572436  0.58558774     0.85200
O583        O  0.87042989  0.08722032  0.58637095    -0.79700
C584        C  0.70992409  0.98947548  0.74120455     0.04400
C585        C  0.72144216  0.97466069  0.75215401    -0.11800
C586        C  0.74322722  0.97473470  0.75156825     0.01900
C587        C  0.75346315  0.98994677  0.74012178    -0.10300
C588        C  0.74225983  0.00490347  0.72918439     0.04400
C589        C  0.72048349  0.00463957  0.72985832    -0.09700
H590        H  0.71347593  0.96317915  0.76128925     0.10000
H591        H  0.77027415  0.99058641  0.74032148     0.07500
H592        H  0.71175379  0.01608410  0.72132625     0.07300
O593        O  0.86796915  0.92033481  0.89335093    -0.77300
C594        C  0.92287257  0.90900779  0.85331040     0.83800
O595        O  0.84310572  0.87490681  0.84167261    -0.78400
O596        O  0.91359099  0.84442271  0.85035689    -0.79900
O597        O  0.90159842  0.86157490  0.92294816    -0.79700
O598        O  0.86361054  0.89817744  0.91912008    -0.78300
Zn599      Zn  0.87860418  0.90376643  0.86919223     1.55700
O600        O  0.92548955  0.85617646  0.89876859    -0.79700
Cd601      Cd  0.87582524  0.87134864  0.90634712     1.59700
Cd602      Cd  0.86379691  0.85685993  0.85882633     1.59600
O603        O  0.85460730  0.84774114  0.90942437    -0.79700
O604        O  0.88219676  0.87504296  0.87646040    -1.90200
Cd605      Cd  0.91161987  0.86713114  0.87213199     1.59900
O606        O  0.84703730  0.83696370  0.87759335    -0.79600
O607        O  0.92812381  0.89101907  0.85915508    -0.78300
C608        C  0.84295221  0.89441207  0.83900862     0.84300
C609        C  0.86176075  0.91621544  0.91153651     0.83900
O610        O  0.90476858  0.91621735  0.85673052    -0.77200
C611        C  0.91944858  0.85510345  0.91743823     0.84700
O612        O  0.85597497  0.90605665  0.84814049    -0.77300
C613        C  0.84525374  0.83547411  0.89713483     0.84900
C614        C  0.90115879  0.83562996  0.83787714     0.85200
O615        O  0.88159721  0.83884178  0.83857197    -0.79700
O616        O  0.09919646  0.62503084  0.92544785    -0.77300
C617        C  0.13499827  0.56974078  0.91320485     0.83800
O618        O  0.14783659  0.65272740  0.88085668    -0.78400
O619        O  0.14522309  0.58247595  0.85204926    -0.79900
O620        O  0.06885901  0.59399125  0.86359239    -0.79700
O621        O  0.07188334  0.62807262  0.90457398    -0.78300
Zn622      Zn  0.12316791  0.61518974  0.90819353     1.55700
O623        O  0.09405492  0.57190120  0.85547650    -0.79700
Cd624      Cd  0.08479789  0.61879912  0.87653916     1.59700
Cd625      Cd  0.13200700  0.63159883  0.86217966     1.59600
O626        O  0.08116181  0.64202697  0.85491327    -0.79700
O627        O  0.11497802  0.61248597  0.87974329    -1.90200
Cd628      Cd  0.11971200  0.58350187  0.87096792     1.59900
O629        O  0.11270730  0.64741260  0.84179199    -0.79600
O630        O  0.12797016  0.56476859  0.89548695    -0.78300
C631        C  0.15203443  0.65170944  0.90007247     0.84300
C632        C  0.08032130  0.63000469  0.92231513     0.83900
O633        O  0.13447047  0.58838083  0.91949468    -0.77200
C634        C  0.07510570  0.57760237  0.85459945     0.84700
O635        O  0.14465567  0.63738138  0.91128397    -0.77300
C636        C  0.09311775  0.65054330  0.84177286     0.84900
C637        C  0.15738109  0.59564156  0.84394338     0.85200
O638        O  0.15441200  0.61501471  0.84583777    -0.79700
C639        C  0.99660204  0.74050007  0.70432934     0.04400
C640        C  0.01266975  0.73093837  0.71556093    -0.11800
C641        C  0.01218214  0.73066972  0.73724422     0.01900
C642        C  0.99534694  0.73978332  0.74749696    -0.10300
C643        C  0.97937384  0.74949480  0.73654068     0.04400
C644        C  0.98005962  0.74981688  0.71493794    -0.09700
H645        H  0.02549633  0.72380612  0.70745667     0.10000
H646        H  0.99479843  0.73959179  0.76419207     0.07500
H647        H  0.96785115  0.75750752  0.70639045     0.07300
C648        C  0.94977654  0.49587472  0.73525297     0.04400
C649        C  0.96066716  0.48379553  0.72076014    -0.11800
C650        C  0.98239877  0.48475931  0.71941533     0.01900
C651        C  0.99348171  0.49669190  0.73375993    -0.10300
C652        C  0.98313263  0.50842596  0.74874787     0.04400
C653        C  0.96131408  0.50836586  0.74898361    -0.09700
H654        H  0.95240815  0.47348333  0.71051397     0.10000
H655        H  0.01028611  0.49619325  0.73367070     0.07500
H656        H  0.95340416  0.51818199  0.75994657     0.07300
C657        C  0.29537709  0.50295084  0.75009931     0.04400
C658        C  0.28348823  0.49001777  0.73707963    -0.11800
C659        C  0.26169628  0.49002799  0.73790470     0.01900
C660        C  0.25172859  0.50415960  0.75085829    -0.10300
C661        C  0.26302379  0.51829655  0.76278244     0.04400
C662        C  0.28481191  0.51720925  0.76283678    -0.09700
H663        H  0.29104803  0.48013304  0.72596487     0.10000
H664        H  0.23493311  0.50408258  0.75182461     0.07500
H665        H  0.29340078  0.52760767  0.77270432     0.07300
C666        C  0.75059850  0.94821630  0.49962598     0.04400
C667        C  0.73438980  0.95907266  0.48986680    -0.11800
C668        C  0.73381231  0.98077429  0.49047237     0.01900
C669        C  0.74964404  0.99135949  0.50103105    -0.10300
C670        C  0.76599348  0.98077933  0.51050743     0.04400
C671        C  0.76620922  0.95922345  0.51010121    -0.09700
H672        H  0.72268876  0.95062999  0.48131365     0.10000
H673        H  0.74921437  0.00802548  0.50210134     0.07500
H674        H  0.77865569  0.95102973  0.51779728     0.07300
C675        C  0.00778566  0.24123829  0.44864548     0.04400
C676        C  0.02135729  0.25429439  0.45975948    -0.11800
C677        C  0.02261999  0.25328838  0.48135891     0.01900
C678        C  0.01108318  0.23828804  0.49183334    -0.10300
C679        C  0.99776835  0.22492243  0.48115590     0.04400
C680        C  0.99562421  0.22699731  0.45973907    -0.09700
H681        H  0.03110636  0.26521456  0.45172411     0.10000
H682        H  0.01181876  0.23754648  0.50850897     0.07500
H683        H  0.98430805  0.21748836  0.45186449     0.07300
C684        C  0.99823265  0.24966864  0.79268190     0.04400
C685        C  0.01556514  0.25867631  0.78300571    -0.11800
C686        C  0.01763416  0.25807146  0.76151046     0.01900
C687        C  0.00232839  0.24842199  0.74955498    -0.10300
C688        C  0.98503124  0.23906743  0.75879212     0.04400
C689        C  0.98301949  0.23993996  0.78037782    -0.09700
H690        H  0.02776793  0.26569970  0.79214128     0.10000
H691        H  0.00380213  0.24855739  0.73292130     0.07500
H692        H  0.96970566  0.23282547  0.78762896     0.07300
C693        C  0.49525243  0.74882081  0.29009106     0.04400
C694        C  0.50983617  0.76037951  0.27868698    -0.11800
C695        C  0.50903796  0.76100907  0.25697396     0.01900
C696        C  0.49262678  0.75093176  0.24679291    -0.10300
C697        C  0.47819897  0.73906703  0.25772066     0.04400
C698        C  0.47996990  0.73764913  0.27921834    -0.09700
H699        H  0.52199838  0.76871381  0.28664284     0.10000
H700        H  0.49132885  0.75186107  0.23018754     0.07500
H701        H  0.46939926  0.72762394  0.28738208     0.07300
C702        C  0.79435727  0.99740427  0.25714081     0.04400
C703        C  0.78401275  0.98376385  0.24361034    -0.11800
C704        C  0.76231950  0.98436749  0.24128428     0.01900
C705        C  0.75101865  0.99924262  0.25225418    -0.10300
C706        C  0.76083896  0.01278123  0.26599070     0.04400
C707        C  0.78247152  0.01167936  0.26857895    -0.09700
H708        H  0.79284757  0.97267222  0.23478728     0.10000
H709        H  0.73433026  0.00020688  0.25029682     0.07500
H710        H  0.78999381  0.02209471  0.27931661     0.07300
C711        C  0.24271124  0.78767557  0.99958492     0.04400
C712        C  0.23143561  0.77645710  0.98468214    -0.11800
C713        C  0.23038918  0.75490960  0.98568128     0.01900
C714        C  0.24062299  0.74447002  0.00159228    -0.10300
C715        C  0.25209684  0.75529692  0.01649005     0.04400
C716        C  0.25317635  0.77690212  0.01533848    -0.09700
H717        H  0.22290734  0.78444405  0.97272118     0.10000
H718        H  0.23992070  0.72778464  0.00212383     0.07500
H719        H  0.26212038  0.78532090  0.02675749     0.07300
C720        C  0.74302260  0.29555625  0.49154722     0.04400
C721        C  0.75435438  0.28410987  0.50613831    -0.11800
C722        C  0.75547034  0.26248231  0.50472412     0.01900
C723        C  0.74488368  0.25247994  0.48861486    -0.10300
C724        C  0.73289477  0.26355063  0.47440336     0.04400
C725        C  0.73212927  0.28516004  0.47580270    -0.09700
H726        H  0.76219850  0.29209806  0.51859665     0.10000
H727        H  0.74559241  0.23583501  0.48731661     0.07500
H728        H  0.72297466  0.29383363  0.46480823     0.07300
C729        C  0.20219302  0.49543106  0.24182674     0.04400
C730        C  0.21431475  0.48052440  0.25202388    -0.11800
C731        C  0.23609704  0.48064768  0.25033713     0.01900
C732        C  0.24553339  0.49609846  0.23854461    -0.10300
C733        C  0.23369597  0.51080741  0.22796637     0.04400
C734        C  0.21200286  0.51047223  0.22966634    -0.09700
H735        H  0.20672057  0.46866562  0.26099558     0.10000
H736        H  0.26231096  0.49701311  0.23782889     0.07500
H737        H  0.20279721  0.52187317  0.22159006     0.07300
C738        C  0.25003560  0.44180905  0.99551474     0.04400
C739        C  0.23495702  0.45300871  0.98434465    -0.11800
C740        C  0.23373895  0.47458705  0.98576248     0.01900
C741        C  0.24864792  0.48516848  0.99749242    -0.10300
C742        C  0.26487971  0.47472797  0.00741723     0.04400
C743        C  0.26511361  0.45302272  0.00685101    -0.09700
H744        H  0.22440701  0.44510904  0.97404179     0.10000
H745        H  0.24761742  0.50178250  0.99892772     0.07500
H746        H  0.27719971  0.44498898  0.01508116     0.07300
C747        C  0.44981592  0.99266901  0.24441504     0.04400
C748        C  0.45976423  0.00319222  0.26070383    -0.11800
C749        C  0.48148251  0.00300803  0.26257679     0.01900
C750        C  0.49317560  0.99151745  0.24844782    -0.10300
C751        C  0.48366625  0.98115921  0.23199603     0.04400
C752        C  0.46196868  0.98182808  0.22994810    -0.09700
H753        H  0.45061790  0.01152840  0.27195376     0.10000
H754        H  0.50990369  0.99075849  0.25010996     0.07500
H755        H  0.45458761  0.97381819  0.21721893     0.07300
C756        C  0.50740034  0.24598848  0.20011816     0.04400
C757        C  0.52028717  0.23257022  0.21143186    -0.11800
C758        C  0.52171136  0.23419955  0.23294781     0.01900
C759        C  0.50920738  0.24847910  0.24333399    -0.10300
C760        C  0.49592709  0.26171676  0.23249417     0.04400
C761        C  0.49531416  0.26056513  0.21088174    -0.09700
H762        H  0.52928150  0.22084867  0.20360591     0.10000
H763        H  0.50940737  0.24880273  0.26003429     0.07500
H764        H  0.48555359  0.27122728  0.20247732     0.07300
C765        C  0.25566007  0.20020520  0.49468367     0.04400
C766        C  0.24550370  0.21210525  0.50980246    -0.11800
C767        C  0.24435966  0.23372316  0.50813114     0.01900
C768        C  0.25310032  0.24320613  0.49071670    -0.10300
C769        C  0.26399969  0.23164131  0.47602873     0.04400
C770        C  0.26546749  0.21024433  0.47819715    -0.09700
H771        H  0.23844949  0.20448082  0.52284921     0.10000
H772        H  0.25167652  0.25969099  0.48856867     0.07500
H773        H  0.27414641  0.20144247  0.46692102     0.07300
C774        C  0.00065370  0.74588298  0.04949399     0.04400
C775        C  0.00675473  0.72786786  0.03893681    -0.11800
C776        C  0.00738618  0.72719291  0.01725229     0.01900
C777        C  0.00117312  0.74477228  0.00618030    -0.10300
C778        C  0.99373353  0.76233518  0.01639894     0.04400
C779        C  0.99374863  0.76291771  0.03798235    -0.09700
H780        H  0.01078188  0.71422308  0.04762877     0.10000
H781        H  0.00189858  0.74487230  0.98952357     0.07500
H782        H  0.98867049  0.77684612  0.04570990     0.07300
C783        C  0.75046762  0.04491966  0.99808382     0.04400
C784        C  0.73356878  0.03420118  0.00671988    -0.11800
C785        C  0.73215693  0.01262911  0.00496868     0.01900
C786        C  0.74806386  0.00185588  0.99487308    -0.10300
C787        C  0.76497007  0.01222167  0.98621591     0.04400
C788        C  0.76615719  0.03376548  0.98786644    -0.09700
H789        H  0.72123113  0.04269130  0.01424341     0.10000
H790        H  0.74752060  0.98517971  0.99398570     0.07500
H791        H  0.77913522  0.04184398  0.98100776     0.07300
C792        C  0.04702394  0.99853060  0.73918572     0.04400
C793        C  0.03631747  0.00774230  0.72272858    -0.11800
C794        C  0.01456321  0.00705351  0.72174941     0.01900
C795        C  0.00356986  0.99652985  0.73714517    -0.10300
C796        C  0.01388229  0.98776191  0.75415301     0.04400
C797        C  0.03572484  0.98888400  0.75498898    -0.09700
H798        H  0.04493285  0.01553742  0.71072379     0.10000
H799        H  0.98684062  0.99545668  0.73592073     0.07500
H800        H  0.04402698  0.98215298  0.76784663     0.07300
C801        C  0.18070505  0.70198587  0.91162022    -0.27000
C802        C  0.18699891  0.69866903  0.93209967     0.06600
C803        C  0.18308021  0.67944284  0.94120530     0.26300
C804        C  0.17233768  0.66420019  0.93039193    -0.11400
C805        C  0.16523527  0.66763431  0.91017433    -0.25400
C806        C  0.16989530  0.68662704  0.90069137     0.37100
C807        C  0.19695077  0.71526757  0.94443633     0.06700
F808        F  0.18962698  0.67538196  0.96068495    -0.19200
H809        H  0.16932628  0.64971507  0.93807311     0.16500
F810        F  0.16337074  0.69070875  0.88122317    -0.22900
H811        H  0.18357777  0.71669649  0.90432783     0.18300
C812        C  0.21510435  0.72526203  0.93769912     0.26300
C813        C  0.22552608  0.73906047  0.95081920    -0.11400
C814        C  0.21795068  0.74298291  0.97072131    -0.25500
C815        C  0.19935928  0.73375674  0.97705525     0.37200
C816        C  0.18890174  0.72014686  0.96396863    -0.27100
F817        F  0.22340170  0.72077250  0.91900723    -0.19200
H818        H  0.23994922  0.74598089  0.94582601     0.16500
F819        F  0.19167496  0.73746858  0.99617487    -0.22900
H820        H  0.17477715  0.71290463  0.96932538     0.18300
C821        C  0.16818141  0.54485842  0.95466205    -0.27000
C822        C  0.17037213  0.52475613  0.94698613     0.06600
C823        C  0.15879719  0.51874470  0.92961850     0.26300
C824        C  0.14637741  0.53315879  0.91927361    -0.11400
C825        C  0.14517129  0.55375194  0.92619118    -0.25400
C826        C  0.15568616  0.55921531  0.94450919     0.37100
C827        C  0.18640216  0.51108746  0.95597107     0.06700
F828        F  0.16055714  0.49935939  0.92189132    -0.19200
H829        H  0.13842062  0.52838907  0.90534772     0.16500
F830        F  0.15486861  0.57870191  0.95212904    -0.22900
H831        H  0.17683512  0.54966406  0.96816629     0.18300
C832        C  0.20726040  0.51736661  0.95594654     0.26300
C833        C  0.22250336  0.50511105  0.96504178    -0.11400
C834        C  0.21730989  0.48643475  0.97470561    -0.25500
C835        C  0.19638447  0.47994806  0.97441808     0.37200
C836        C  0.18111221  0.49214771  0.96495723    -0.27100
F837        F  0.21291238  0.53540980  0.94700783    -0.19200
H838        H  0.23845159  0.51034231  0.96461208     0.16500
F839        F  0.19050711  0.46235548  0.98405931    -0.22900
H840        H  0.16508524  0.48713743  0.96518477     0.18300
C841        C  0.06737187  0.66313938  0.96862297    -0.27000
C842        C  0.04559531  0.66184636  0.96936909     0.06600
C843        C  0.03543896  0.64837236  0.95550843     0.26300
C844        C  0.04677016  0.63759819  0.94050326    -0.11400
C845        C  0.06846330  0.63948197  0.93945780    -0.25400
C846        C  0.07870804  0.65190711  0.95412010     0.37100
C847        C  0.03381876  0.67615555  0.98313376     0.06700
F848        F  0.01455553  0.64572290  0.95629907    -0.19200
H849        H  0.03857144  0.62791781  0.92957992     0.16500
F850        F  0.09963490  0.65438399  0.95360476    -0.22900
H851        H  0.07569349  0.67366248  0.97861523     0.18300
C852        C  0.04105662  0.68109644  0.00307061     0.26300
C853        C  0.03210392  0.69728580  0.01424870    -0.11400
C854        C  0.01527710  0.70853366  0.00617878    -0.25500
C855        C  0.00687226  0.70231257  0.98705447     0.37200
C856        C  0.01631463  0.68665881  0.97555556    -0.27100
F857        F  0.05706135  0.67054705  0.01167312    -0.19200
H858        H  0.03888374  0.70142461  0.02895277     0.16500
F859        F  0.98957425  0.71138970  0.97928708    -0.22900
H860        H  0.01032160  0.68337094  0.96032344     0.18300
C861        C  0.20199546  0.59013142  0.80590705    -0.27000
C862        C  0.20953318  0.57046413  0.81107919     0.06600
C863        C  0.20045985  0.55979433  0.82755017     0.26300
C864        C  0.18372761  0.56831232  0.83815036    -0.11400
C865        C  0.17574735  0.58773370  0.83274326    -0.25400
C866        C  0.18532674  0.59883255  0.81675471     0.37100
C867        C  0.22530171  0.56005953  0.79814601     0.06700
F868        F  0.20706764  0.54062194  0.83273176    -0.19200
H869        H  0.17684875  0.55953213  0.85055315     0.16500
F870        F  0.17808696  0.61761316  0.81103664    -0.22900
H871        H  0.20878151  0.59854771  0.79321108     0.18300
C872        C  0.22136793  0.55673438  0.77712074     0.26300
C873        C  0.23442971  0.54405592  0.76558395    -0.11400
C874        C  0.25152075  0.53415588  0.77478539    -0.25500
C875        C  0.25613088  0.53838812  0.79559964     0.37200
C876        C  0.24307381  0.55124806  0.80714332    -0.27100
F877        F  0.20404739  0.56450839  0.76806916    -0.19200
H878        H  0.23069841  0.54132683  0.74953177     0.16500
F879        F  0.27234381  0.52907860  0.80517969    -0.22900
H880        H  0.24633572  0.55366135  0.82334288     0.18300
C881        C  0.02554583  0.55984648  0.82773001    -0.27000
C882        C  0.03352277  0.54649575  0.81261272     0.06600
C883        C  0.05487807  0.54200392  0.81275362     0.26300
C884        C  0.06805875  0.55138316  0.82712857    -0.11400
C885        C  0.06032210  0.56556169  0.84164954    -0.25400
C886        C  0.03875303  0.56931098  0.84212524     0.37100
C887        C  0.01979379  0.53782921  0.79628997     0.06700
F888        F  0.06306876  0.52863226  0.79884592    -0.19200
H889        H  0.08450208  0.54805244  0.82636405     0.16500
F890        F  0.03041094  0.58241136  0.85619283    -0.22900
H891        H  0.00915416  0.56348748  0.82797201     0.18300
C892        C  0.00121301  0.52760167  0.80122616     0.26300
C893        C  0.98909631  0.51860800  0.78565883    -0.11400
C894        C  0.99516599  0.51973325  0.76485936    -0.25500
C895        C  0.01332996  0.53074146  0.75989971     0.37200
C896        C  0.02548015  0.53960251  0.77547106    -0.27100
F897        F  0.99521267  0.52552432  0.82115295    -0.19200
H898        H  0.97530601  0.51013527  0.78996712     0.16500
F899        F  0.01929374  0.53312249  0.73999259    -0.22900
H900        H  0.03941572  0.54789372  0.77125475     0.18300
C901        C  0.05488240  0.68455562  0.81292913    -0.27000
C902        C  0.06493558  0.68723248  0.79397645     0.06600
C903        C  0.08463596  0.67848312  0.79101182     0.26300
C904        C  0.09403800  0.66709519  0.80682931    -0.11400
C905        C  0.08376362  0.66395087  0.82570696    -0.25400
C906        C  0.06404747  0.67292104  0.82859646     0.37100
C907        C  0.05442994  0.69909962  0.77753588     0.06700
F908        F  0.09478795  0.68104660  0.77289181    -0.19200
H909        H  0.10913603  0.66032242  0.80411939     0.16500
F910        F  0.05358347  0.67055073  0.84657565    -0.22900
H911        H  0.03970039  0.69123832  0.81545475     0.18300
C912        C  0.04716960  0.68933655  0.75952961     0.26300
C913        C  0.03439925  0.70004505  0.74567550    -0.11400
C914        C  0.02874166  0.72060091  0.74961739    -0.25500
C915        C  0.03726238  0.73069953  0.76693469     0.37200
C916        C  0.04979998  0.71995153  0.78082986    -0.27100
F917        F  0.05127280  0.66910351  0.75607591    -0.19200
H918        H  0.02798538  0.69194404  0.73250742     0.16500
F919        F  0.03295765  0.75083790  0.77073396    -0.22900
H920        H  0.05544152  0.72774327  0.79452901     0.18300
C921        C  0.96285374  0.92263740  0.81300662    -0.27000
C922        C  0.96484004  0.94407972  0.81544882     0.06600
C923        C  0.95319882  0.95391222  0.83105306     0.26300
C924        C  0.93960575  0.94252665  0.84348775    -0.11400
C925        C  0.93782654  0.92110764  0.84101200    -0.25400
C926        C  0.94970992  0.91123985  0.82572830     0.37100
C927        C  0.97818288  0.95599923  0.80094312     0.06700
F928        F  0.95510326  0.97447393  0.83446823    -0.19200
H929        H  0.93059709  0.95040597  0.85516567     0.16500
F930        F  0.94780315  0.89065821  0.82233609    -0.22900
H931        H  0.97104728  0.91469113  0.80079920     0.18300
C932        C  0.99788801  0.94870939  0.79494952     0.26300
C933        C  0.00940524  0.95911884  0.77993263    -0.11400
C934        C  0.00182629  0.97727845  0.77079776    -0.25500
C935        C  0.98251318  0.98503691  0.77751905     0.37200
C936        C  0.97078243  0.97433250  0.79211593    -0.27100
F937        F  0.00611523  0.93154542  0.80365969    -0.19200
H938        H  0.02415711  0.95268099  0.77519954     0.16500
F939        F  0.97497910  0.00315824  0.77026768    -0.22900
H940        H  0.95563623  0.98027654  0.79622796     0.18300
C941        C  0.83604109  0.94593798  0.95528864    -0.27000
C942        C  0.82501920  0.96098565  0.94422688     0.06600
C943        C  0.82766953  0.96225830  0.92279438     0.26300
C944        C  0.84049671  0.94826423  0.91253437    -0.11400
C945        C  0.85074475  0.93248723  0.92335338    -0.25400
C946        C  0.84868390  0.93166088  0.94495999     0.37100
C947        C  0.80989362  0.97457519  0.95480874     0.06700
F948        F  0.81753982  0.97686104  0.91170622    -0.19200
H949        H  0.84169671  0.94928259  0.89593514     0.16500
F950        F  0.85862913  0.91695141  0.95606331    -0.22900
H951        H  0.83424760  0.94478786  0.97182572     0.18300
C952        C  0.78893949  0.97459066  0.94867625     0.26300
C953        C  0.77459754  0.98723000  0.95869927    -0.11400
C954        C  0.78084438  0.00018391  0.97493009    -0.25500
C955        C  0.80180312  0.00031068  0.98103872     0.37200
C956        C  0.81618444  0.98745076  0.97112180    -0.27100
F957        F  0.78221579  0.96190661  0.93337459    -0.19200
H958        H  0.75848190  0.98678074  0.95391879     0.16500
F959        F  0.80817646  0.01227993  0.99703508    -0.22900
H960        H  0.83223241  0.98755666  0.97611464     0.18300
C961        C  0.95853821  0.81886107  0.94186405    -0.27000
C962        C  0.95522731  0.82233364  0.96298890     0.06600
C963        C  0.94131827  0.83797281  0.96897790     0.26300
C964        C  0.93018067  0.84903133  0.95409846    -0.11400
C965        C  0.93300186  0.84505810  0.93297075    -0.25400
C966        C  0.94766860  0.83009696  0.92699596     0.37100
C967        C  0.96567076  0.80884180  0.97836931     0.06700
F968        F  0.93849790  0.84261772  0.98918845    -0.19200
H969        H  0.91917089  0.86059095  0.95912457     0.16500
F970        F  0.95070533  0.82542216  0.90681690    -0.22900
H971        H  0.96904187  0.80684922  0.93681607     0.18300
C972        C  0.95429540  0.79922471  0.99419557     0.26300
C973        C  0.96388085  0.78490255  0.00718131    -0.11400
C974        C  0.98478422  0.77954276  0.00437599    -0.25500
C975        C  0.99631886  0.78944833  0.98895658     0.37200
C976        C  0.98685444  0.80403981  0.97617251    -0.27100
F977        F  0.93360292  0.80255010  0.99626937    -0.19200
H978        H  0.95469277  0.77718769  0.01879217     0.16500
F979        F  0.01665693  0.78480407  0.98610563    -0.22900
H980        H  0.99597704  0.81128155  0.96421721     0.18300
C981        C  0.93993258  0.81159709  0.80117405    -0.27000
C982        C  0.92789149  0.79681426  0.79089438     0.06600
C983        C  0.90694010  0.79432790  0.79642186     0.26300
C984        C  0.89811355  0.80698550  0.81166508    -0.11400
C985        C  0.91021395  0.82193335  0.82188710    -0.25400
C986        C  0.93133287  0.82397032  0.81649529     0.37100
C987        C  0.93781389  0.78409630  0.77470638     0.06700
F988        F  0.89497140  0.77999339  0.78681707    -0.19200
H989        H  0.88190142  0.80502418  0.81555066     0.16500
F990        F  0.94372444  0.83826511  0.82565289    -0.22900
H991        H  0.95617218  0.81352582  0.79733515     0.18300
C992        C  0.94825731  0.79361865  0.75825637     0.26300
C993        C  0.96066361  0.78197890  0.74496969    -0.11400
C994        C  0.96308275  0.76072795  0.74803766    -0.25500
C995        C  0.95175595  0.75100471  0.76379506     0.37200
C996        C  0.93911889  0.76263097  0.77695745    -0.27100
F997        F  0.94713182  0.81433721  0.75559455    -0.19200
H998        H  0.96934265  0.78975303  0.73301202     0.16500
F999        F  0.95352343  0.73039375  0.76688659    -0.22900
H1000       H  0.93127712  0.75505380  0.78958793     0.18300
C1001       C  0.78517893  0.93659096  0.76657949    -0.27000
C1002       C  0.78141621  0.93423238  0.78770204     0.06600
C1003       C  0.76427385  0.94411664  0.79667223     0.26300
C1004       C  0.75136158  0.95664687  0.78466815    -0.11400
C1005       C  0.75550978  0.95961825  0.76361898    -0.25400
C1006       C  0.77232253  0.94910804  0.75457096     0.37100
C1007       C  0.79686680  0.92357036  0.80063829     0.06700
F1008       F  0.76066795  0.94245823  0.81720447    -0.19200
H1009       H  0.73865530  0.96474452  0.79200091     0.16500
F1010       F  0.77647097  0.95115480  0.73417194    -0.22900
H1011       H  0.79844468  0.92915146  0.75952453     0.18300
C1012       C  0.79404794  0.90311945  0.80706475     0.26300
C1013       C  0.80921519  0.89344264  0.81923604    -0.11400
C1014       C  0.82726414  0.90415980  0.82529907    -0.25500
C1015       C  0.82989358  0.92470484  0.81864926     0.37200
C1016       C  0.81486745  0.93417796  0.80641298    -0.27100
F1017       F  0.77670421  0.89256642  0.80152771    -0.19200
H1018       H  0.80669882  0.87772132  0.82415769     0.16500
F1019       F  0.84706512  0.93573417  0.82378967    -0.22900
H1020       H  0.81722982  0.94992902  0.80147168     0.18300
C1021       C  0.91573401  0.17985879  0.71200710    -0.27000
C1022       C  0.92414032  0.19899349  0.70661252     0.06600
C1023       C  0.92011903  0.20712396  0.68700539     0.26300
C1024       C  0.90861481  0.19577271  0.67261635    -0.11400
C1025       C  0.90110568  0.17599476  0.67747499    -0.25400
C1026       C  0.90430257  0.16839075  0.69763038     0.37100
C1027       C  0.93930035  0.20909575  0.72037659     0.06700
F1028       F  0.92809279  0.22567641  0.68151033    -0.19200
H1029       H  0.90638870  0.20213267  0.65736822     0.16500
F1030       F  0.89728802  0.14949530  0.70325452    -0.22900
H1031       H  0.91886055  0.17338262  0.72705979     0.18300
C1032       C  0.93299641  0.22105552  0.73728257     0.26300
C1033       C  0.94787433  0.23071177  0.74982870    -0.11400
C1034       C  0.96923380  0.22834935  0.74580372    -0.25500
C1035       C  0.97535881  0.21579984  0.72910269     0.37200
C1036       C  0.96049577  0.20647446  0.71646957    -0.27100
F1037       F  0.91251608  0.22359626  0.74144498    -0.19200
H1038       H  0.94268329  0.24030060  0.76249115     0.16500
F1039       F  0.99571685  0.21207290  0.72523460    -0.22900
H1040       H  0.96552926  0.19698670  0.70365248     0.18300
C1041       C  0.93469092  0.18499475  0.54498132    -0.27000
C1042       C  0.94803675  0.17293164  0.53300161     0.06600
C1043       C  0.94922872  0.15160639  0.53662598     0.26300
C1044       C  0.93690411  0.14253322  0.55196521    -0.11400
C1045       C  0.92360148  0.15471699  0.56412974    -0.25400
C1046       C  0.92267045  0.17613117  0.56038712     0.37100
C1047       C  0.96103468  0.18331804  0.51742810     0.06700
F1048       F  0.96206701  0.13959254  0.52519336    -0.19200
H1049       H  0.93791887  0.12608063  0.55446271     0.16500
F1050       F  0.90991258  0.18865539  0.57137873    -0.22900
H1051       H  0.93376164  0.20147147  0.54253314     0.18300
C1052       C  0.95174837  0.19523460  0.50187023     0.26300
C1053       C  0.96386089  0.20811922  0.48953946    -0.11400
C1054       C  0.98539873  0.20948010  0.49266635    -0.25500
C1055       C  0.99479117  0.19676449  0.50758769     0.37200
C1056       C  0.98266531  0.18375490  0.51981495    -0.27100
F1057       F  0.93084899  0.19493869  0.49913023    -0.19200
H1058       H  0.95628633  0.21772636  0.47817959     0.16500
F1059       F  0.01564805  0.19721096  0.51060749    -0.22900
H1060       H  0.99003511  0.17478245  0.53181257     0.18300
C1061       C  0.99348701  0.05056254  0.68894798    -0.27000
C1062       C  0.97696165  0.04082230  0.67865940     0.06600
C1063       C  0.97417416  0.01948596  0.68100354     0.26300
C1064       C  0.98703737  0.00833220  0.69436858    -0.11400
C1065       C  0.00302170  0.01824148  0.70539323    -0.25400
C1066       C  0.00649183  0.03940058  0.70212357     0.37100
C1067       C  0.96117476  0.05342473  0.66786315     0.06700
F1068       F  0.95817760  0.00971618  0.67144864    -0.19200
H1069       H  0.98412164  0.99207198  0.69662133     0.16500
F1070       F  0.02148950  0.04960597  0.71277467    -0.22900
H1071       H  0.99576223  0.06701108  0.68740845     0.18300
C1072       C  0.94950258  0.06778090  0.67912271     0.26300
C1073       C  0.93406846  0.07932688  0.66946792    -0.11400
C1074       C  0.92992486  0.07702154  0.64826560    -0.25500
C1075       C  0.94180690  0.06272474  0.63687357     0.37200
C1076       C  0.95718828  0.05090221  0.64670158    -0.27100
F1077       F  0.95269036  0.07027547  0.69967587    -0.19200
H1078       H  0.92535279  0.09017810  0.67873489     0.16500
F1079       F  0.93842774  0.05992871  0.61640242    -0.22900
H1080       H  0.96603936  0.03984050  0.63781886     0.18300
C1081       C  0.79807525  0.24309229  0.54066625    -0.27000
C1082       C  0.78975442  0.22418822  0.54736803     0.06600
C1083       C  0.76975088  0.21856062  0.54059789     0.26300
C1084       C  0.75856480  0.23142385  0.52738686    -0.11400
C1085       C  0.76713263  0.24998438  0.52013571    -0.25400
C1086       C  0.78705826  0.25574325  0.52701193     0.37100
C1087       C  0.80217161  0.21017230  0.56081129     0.06700
F1088       F  0.76124913  0.20021621  0.54601176    -0.19200
H1089       H  0.74320252  0.22665173  0.52256382     0.16500
F1090       F  0.79631576  0.27311014  0.51989216    -0.22900
H1091       H  0.81326939  0.24801985  0.54582348     0.18300
C1092       C  0.82335719  0.20653088  0.55681428     0.26300
C1093       C  0.83476370  0.19307585  0.56924076    -0.11400
C1094       C  0.82522310  0.18241137  0.58544999    -0.25500
C1095       C  0.80409137  0.18581731  0.58944778     0.37200
C1096       C  0.79280038  0.19985723  0.57747209    -0.27100
F1097       F  0.83289704  0.21522670  0.54035261    -0.19200
H1098       H  0.85094880  0.19036825  0.56568902     0.16500
F1099       F  0.79446506  0.17585113  0.60511733    -0.22900
H1100       H  0.77669345  0.20262409  0.58123312     0.18300
C1101       C  0.80692212  0.02131859  0.52087401    -0.27000
C1102       C  0.81037961  0.01875208  0.54205842     0.06600
C1103       C  0.80082316  0.00220957  0.55234344     0.26300
C1104       C  0.78717848  0.98913277  0.54175229    -0.11400
C1105       C  0.78268983  0.99256657  0.52087143    -0.25400
C1106       C  0.79313385  0.00839695  0.51034658     0.37100
C1107       C  0.82158805  0.03492410  0.55373080     0.06700
F1108       F  0.80415698  0.99916907  0.57277761    -0.19200
H1109       H  0.77934110  0.97696906  0.55007741     0.16500
F1110       F  0.78952466  0.01170935  0.48999867    -0.22900
H1111       H  0.81405351  0.03401764  0.51272658     0.18300
C1112       C  0.84187988  0.04096810  0.54854261     0.26300
C1113       C  0.85146724  0.05735684  0.55903975    -0.11400
C1114       C  0.84077346  0.06820891  0.57452920    -0.25500
C1115       C  0.82044976  0.06195458  0.57967060     0.37200
C1116       C  0.81109796  0.04547406  0.56941849    -0.27100
F1117       F  0.85240584  0.03097595  0.53342266    -0.19200
H1118       H  0.86710171  0.06176458  0.55483623     0.16500
F1119       F  0.80956533  0.07157613  0.59479280    -0.22900
H1120       H  0.79536209  0.04120928  0.57344158     0.18300
C1121       C  0.78330643  0.08350303  0.67764132    -0.27000
C1122       C  0.79135312  0.06856109  0.69103673     0.06600
C1123       C  0.81277669  0.06816826  0.69505458     0.26300
C1124       C  0.82605672  0.08174212  0.68491622    -0.11400
C1125       C  0.81827100  0.09580002  0.67037170    -0.25400
C1126       C  0.79661720  0.09702165  0.66731510     0.37100
C1127       C  0.77770181  0.05249117  0.69972025     0.06700
F1128       F  0.82092679  0.05423473  0.70838436    -0.19200
H1129       H  0.84258095  0.08046582  0.68770304     0.16500
F1130       F  0.78832430  0.11073102  0.65384684    -0.22900
H1131       H  0.76681005  0.08407710  0.67447535     0.18300
C1132       C  0.76037692  0.05763130  0.71178725     0.26300
C1133       C  0.74841198  0.04206551  0.72079573    -0.11400
C1134       C  0.75354492  0.02120332  0.71781912    -0.25500
C1135       C  0.77034282  0.01613576  0.70494291     0.37200
C1136       C  0.78231136  0.03166617  0.69606270    -0.27100
F1137       F  0.75560275  0.07765646  0.71559004    -0.19200
H1138       H  0.73560712  0.04631116  0.73070218     0.16500
F1139       F  0.77519406  0.99615847  0.70094553    -0.22900
H1140       H  0.79531794  0.02744988  0.68639211     0.18300
C1141       C  0.77208874  0.77520663  0.93279551    -0.27000
C1142       C  0.79359565  0.77183040  0.93239586     0.06600
C1143       C  0.80192645  0.75483622  0.94296001     0.26300
C1144       C  0.78899693  0.74198640  0.95448231    -0.11400
C1145       C  0.76764141  0.74606437  0.95586557    -0.25400
C1146       C  0.75918212  0.76249938  0.94450000     0.37100
C1147       C  0.80736580  0.78726764  0.92277904     0.06700
F1148       F  0.82264670  0.75104501  0.94260934    -0.19200
H1149       H  0.79581905  0.72947302  0.96317075     0.16500
F1150       F  0.73852671  0.76659195  0.94517117    -0.22900
H1151       H  0.76542809  0.78827141  0.92482583     0.18300
C1152       C  0.80493594  0.79305432  0.90206689     0.26300
C1153       C  0.81739844  0.80860856  0.89370285    -0.11400
C1154       C  0.83224886  0.81883686  0.90595936    -0.25500
C1155       C  0.83471514  0.81279836  0.92669035     0.37200
C1156       C  0.82241554  0.79715764  0.93490880    -0.27100
F1157       F  0.79062864  0.78356389  0.88992728    -0.19200
H1158       H  0.81523542  0.81282515  0.87771507     0.16500
F1159       F  0.84913511  0.82181384  0.93907002    -0.22900
H1160       H  0.82436685  0.79301256  0.95095073     0.18300
C1161       C  0.56416439  0.94651588  0.18267778    -0.27000
C1162       C  0.54332945  0.94496052  0.17645042     0.06600
C1163       C  0.53861049  0.93492130  0.15777540     0.26300
C1164       C  0.55439526  0.92553311  0.14625769    -0.11400
C1165       C  0.57506025  0.92588457  0.15327308    -0.25400
C1166       C  0.57988428  0.93704068  0.17130267     0.37100
C1167       C  0.52672006  0.95291079  0.19014628     0.06700
F1168       F  0.51863222  0.93302804  0.15135724    -0.19200
H1169       H  0.55027279  0.91696843  0.13250516     0.16500
F1170       F  0.59974795  0.93839193  0.17823139    -0.22900
H1171       H  0.56820553  0.95464859  0.19671982     0.18300
C1172       C  0.52639350  0.94735460  0.21109198     0.26300
C1173       C  0.51167700  0.95587345  0.22436242    -0.11400
C1174       C  0.49693468  0.97001775  0.21705780    -0.25500
C1175       C  0.49667814  0.97499594  0.19597636     0.37200
C1176       C  0.51148669  0.96647809  0.18263472    -0.27100
F1177       F  0.54041105  0.93374986  0.21877195    -0.19200
H1178       H  0.51205751  0.95177496  0.24052877     0.16500
F1179       F  0.48294223  0.98899972  0.18854727    -0.22900
H1180       H  0.51153148  0.97104676  0.16660289     0.18300
C1181       C  0.70632612  0.90977334  0.19830505    -0.27000
C1182       C  0.71595899  0.92722417  0.18971967     0.06600
C1183       C  0.71252475  0.93172159  0.16876389     0.26300
C1184       C  0.69910105  0.91946621  0.15701185    -0.11400
C1185       C  0.68847129  0.90291062  0.16604104    -0.25400
C1186       C  0.69243147  0.89791091  0.18669442     0.37100
C1187       C  0.72833790  0.94132309  0.20303214     0.06700
F1188       F  0.72097141  0.94872683  0.15997247    -0.19200
H1189       H  0.69600823  0.92370187  0.14117534     0.16500
F1190       F  0.68265577  0.88174676  0.19570105    -0.22900
H1191       H  0.70911761  0.90565319  0.21421630     0.18300
C1192       C  0.72068385  0.94754640  0.22235969     0.26300
C1193       C  0.73209222  0.96102861  0.23474069    -0.11400
C1194       C  0.75110458  0.96923282  0.22798942    -0.25500
C1195       C  0.75871277  0.96316357  0.20853625     0.37200
C1196       C  0.74751767  0.94917186  0.19634662    -0.27100
F1197       F  0.70178327  0.94118896  0.22904594    -0.19200
H1198       H  0.72587072  0.96517588  0.24968561     0.16500
F1199       F  0.77651811  0.97126955  0.20089470    -0.22900
H1200       H  0.75379929  0.94458713  0.18155759     0.18300
C1201       C  0.68311819  0.93859112  0.04647305    -0.27000
C1202       C  0.67448630  0.95835337  0.04499742     0.06600
C1203       C  0.65552068  0.96250671  0.05483352     0.26300
C1204       C  0.64564494  0.94712943  0.06640783    -0.11400
C1205       C  0.65476583  0.92755178  0.06859622    -0.25400
C1206       C  0.67350577  0.92336713  0.05821053     0.37100
C1207       C  0.68610310  0.97447491  0.03379057     0.06700
F1208       F  0.64666476  0.98141922  0.05333569    -0.19200
H1209       H  0.63128204  0.95075308  0.07423898     0.16500
F1210       F  0.68273012  0.90459747  0.05952984    -0.22900
H1211       H  0.69771215  0.93512460  0.03897187     0.18300
C1212       C  0.69407437  0.99177855  0.04423368     0.26300
C1213       C  0.70821687  0.00489432  0.03442570    -0.11400
C1214       C  0.71457091  0.00094196  0.01407522    -0.25500
C1215       C  0.70536405  0.98442904  0.00322803     0.37200
C1216       C  0.69146489  0.97123314  0.01310736    -0.27100
F1217       F  0.68938522  0.99511947  0.06435227    -0.19200
H1218       H  0.71508442  0.01742684  0.04311952     0.16500
F1219       F  0.71019733  0.98071587  0.98319888    -0.22900
H1220       H  0.68534238  0.95806246  0.00480225     0.18300
C1221       C  0.54739913  0.77417791  0.21429421    -0.27000
C1222       C  0.55532215  0.79329337  0.22085558     0.06600
C1223       C  0.54849952  0.80130932  0.23991557     0.26300
C1224       C  0.53356812  0.79081739  0.25155955    -0.11400
C1225       C  0.52539963  0.77185765  0.24479192    -0.25400
C1226       C  0.53298216  0.76339977  0.22621107     0.37100
C1227       C  0.56970392  0.80516280  0.20725116     0.06700
F1228       F  0.55633736  0.81924173  0.24744450    -0.19200
H1229       H  0.52819480  0.79774057  0.26576617     0.16500
F1230       F  0.52675415  0.74451035  0.21959593    -0.22900
H1231       H  0.55204908  0.76763367  0.19966464     0.18300
C1232       C  0.58555873  0.79533712  0.19585518     0.26300
C1233       C  0.59754217  0.80651102  0.18172587    -0.11400
C1234       C  0.59449500  0.82776638  0.17923267    -0.25500
C1235       C  0.57925530  0.83772850  0.19109972     0.37200
C1236       C  0.56682534  0.82649160  0.20465871    -0.27100
F1237       F  0.58963179  0.77498226  0.19843463    -0.19200
H1238       H  0.60929438  0.79859598  0.17281901     0.16500
F1239       F  0.57555380  0.85819047  0.18873619    -0.22900
H1240       H  0.55446284  0.83445702  0.21262632     0.18300
C1241       C  0.70010886  0.80852353  0.06169174    -0.27000
C1242       C  0.69384355  0.78781822  0.06176844     0.06600
C1243       C  0.67873468  0.78137878  0.07590166     0.26300
C1244       C  0.66930441  0.79571596  0.08904129    -0.11400
C1245       C  0.67490173  0.81670426  0.08843531    -0.25400
C1246       C  0.69087349  0.82285340  0.07492979     0.37100
C1247       C  0.70245245  0.77335690  0.04633963     0.06700
F1248       F  0.67230381  0.76145570  0.07621726    -0.19200
H1249       H  0.65711150  0.79047274  0.09920116     0.16500
F1250       F  0.69693198  0.84285420  0.07368817    -0.22900
H1251       H  0.71188623  0.81367386  0.05100676     0.18300
C1252       C  0.70000131  0.77732290  0.02520967     0.26300
C1253       C  0.70902662  0.76428722  0.01060647    -0.11400
C1254       C  0.72087528  0.74716224  0.01676234    -0.25500
C1255       C  0.72288533  0.74291830  0.03796571     0.37200
C1256       C  0.71360936  0.75587877  0.05259694    -0.27100
F1257       F  0.68888113  0.79385624  0.01870355    -0.19200
H1258       H  0.70701760  0.76775996  0.99442052     0.16500
F1259       F  0.73473127  0.72696446  0.04461681    -0.22900
H1260       H  0.71571563  0.75268802  0.06882407     0.18300
C1261       C  0.30895879  0.56207208  0.19049201    -0.27000
C1262       C  0.28813264  0.56761369  0.18735058     0.06600
C1263       C  0.28354944  0.58519444  0.17556210     0.26300
C1264       C  0.29962690  0.59617081  0.16598252    -0.11400
C1265       C  0.32035245  0.58960388  0.16795546    -0.25400
C1266       C  0.32490566  0.57280882  0.18080819     0.37100
C1267       C  0.27165231  0.55386633  0.19531774     0.06700
F1268       F  0.26356196  0.59092990  0.17223793    -0.19200
H1269       H  0.29578477  0.60903644  0.15609359     0.16500
F1270       F  0.34478188  0.56643311  0.18361860    -0.22900
H1271       H  0.31283036  0.54888273  0.19993863     0.18300
C1272       C  0.27246545  0.53268180  0.19078236     0.26300
C1273       C  0.25911853  0.51899566  0.20058521    -0.11400
C1274       C  0.24460941  0.52609305  0.21502802    -0.25500
C1275       C  0.24267711  0.54743026  0.21851634     0.37200
C1276       C  0.25618876  0.56124231  0.20869067    -0.27100
F1277       F  0.28670092  0.52513008  0.17733298    -0.19200
H1278       H  0.26064500  0.50263925  0.19749608     0.16500
F1279       F  0.22880867  0.55474208  0.23245140    -0.22900
H1280       H  0.25530646  0.57752254  0.21234122     0.18300
C1281       C  0.33997454  0.53895344  0.04031809    -0.27000
C1282       C  0.32410335  0.52761875  0.05007006     0.06600
C1283       C  0.32028415  0.53134703  0.07114159     0.26300
C1284       C  0.33188713  0.54600382  0.08197957    -0.11400
C1285       C  0.34707090  0.55785178  0.07203349    -0.25400
C1286       C  0.35109235  0.55420216  0.05106574     0.37100
C1287       C  0.31079381  0.51287079  0.03816584     0.06700
F1288       F  0.30454803  0.52170401  0.08111297    -0.19200
H1289       H  0.32828824  0.54878676  0.09803567     0.16500
F1290       F  0.36583793  0.56522795  0.04103157    -0.22900
H1291       H  0.34365921  0.53617853  0.02429815     0.18300
C1292       C  0.30307549  0.51804452  0.01852436     0.26300
C1293       C  0.28894376  0.50510808  0.00844759    -0.11400
C1294       C  0.28163501  0.48693465  0.01778103    -0.25500
C1295       C  0.28985610  0.48137241  0.03711420     0.37200
C1296       C  0.30448340  0.49405079  0.04696295    -0.27100
F1297       F  0.30823319  0.53614409  0.00942592    -0.19200
H1298       H  0.28327903  0.50964806  0.99340317     0.16500
F1299       F  0.28301139  0.46432627  0.04708615    -0.22900
H1300       H  0.31048489  0.48934518  0.06181751     0.18300
C1301       C  0.31228530  0.68878609  0.05603798    -0.27000
C1302       C  0.30029267  0.70191775  0.06833650     0.06600
C1303       C  0.30062581  0.69953097  0.08983038     0.26300
C1304       C  0.31313298  0.68429602  0.09884677    -0.11400
C1305       C  0.32526295  0.67104864  0.08652052    -0.25400
C1306       C  0.32456706  0.67346599  0.06490721     0.37100
C1307       C  0.28744009  0.71780225  0.05820214     0.06700
F1308       F  0.28917576  0.71214158  0.10205644    -0.19200
H1309       H  0.31331406  0.68287907  0.11546714     0.16500
F1310       F  0.33597273  0.66128960  0.05220456    -0.22900
H1311       H  0.31206628  0.69039497  0.03942376     0.18300
C1312       C  0.29691864  0.73418153  0.04768604     0.26300
C1313       C  0.28510431  0.74713726  0.03507035    -0.11400
C1314       C  0.26371994  0.74373496  0.03250200    -0.25500
C1315       C  0.25407522  0.72796885  0.04392028     0.37200
C1316       C  0.26588707  0.71516182  0.05672188    -0.27100
F1317       F  0.31775198  0.73707525  0.04898022    -0.19200
H1318       H  0.29285559  0.75912861  0.02642612     0.16500
F1319       F  0.23333380  0.72461012  0.04225377    -0.22900
H1320       H  0.25838533  0.70255515  0.06469197     0.18300
C1321       C  0.43332108  0.67204116  0.19936193    -0.27000
C1322       C  0.42338846  0.68948072  0.20747317     0.06600
C1323       C  0.40334119  0.69452326  0.20032288     0.26300
C1324       C  0.39374458  0.68248764  0.18498799    -0.11400
C1325       C  0.40410976  0.66544030  0.17644528    -0.25400
C1326       C  0.42383251  0.66008518  0.18419474     0.37100
C1327       C  0.43487736  0.70274049  0.22232974     0.06700
F1328       F  0.39308636  0.71106512  0.20809863    -0.19200
H1329       H  0.37851740  0.68681717  0.17940666     0.16500
F1330       F  0.43410173  0.64323586  0.17708954    -0.22900
H1331       H  0.44881546  0.66793217  0.20436009     0.18300
C1332       C  0.44603899  0.69394682  0.23879845     0.26300
C1333       C  0.45953817  0.70599586  0.25065543    -0.11400
C1334       C  0.46213289  0.72705410  0.24644245    -0.25500
C1335       C  0.45010941  0.73610785  0.23073871     0.37200
C1336       C  0.43668010  0.72401650  0.21877221    -0.27100
F1337       F  0.44428455  0.67355857  0.24312635    -0.19200
H1338       H  0.46856994  0.69866519  0.26266027     0.16500
F1339       F  0.45153989  0.75659255  0.22677956    -0.22900
H1340       H  0.42838028  0.73114113  0.20614368     0.18300
C1341       C  0.51791551  0.81432734  0.02380842    -0.27000
C1342       C  0.53888141  0.81772954  0.01912736     0.06600
C1343       C  0.54736255  0.80876833  0.00128847     0.26300
C1344       C  0.53537136  0.79554285  0.98908392    -0.11400
C1345       C  0.51483209  0.79088150  0.99461488    -0.25400
C1346       C  0.50594959  0.80096746  0.01170049     0.37100
C1347       C  0.55246436  0.82793228  0.03443918     0.06700
F1348       F  0.56752502  0.81208771  0.99622799    -0.19200
H1349       H  0.54252586  0.78799383  0.97599844     0.16500
F1350       F  0.48592861  0.79734880  0.01709228    -0.22900
H1351       H  0.51116052  0.82107052  0.03752763     0.18300
C1352       C  0.54867885  0.84811271  0.04139392     0.26300
C1353       C  0.56103543  0.85671109  0.05703254    -0.11400
C1354       C  0.57701520  0.84511868  0.06620884    -0.25500
C1355       C  0.58082706  0.82496717  0.05896391     0.37200
C1356       C  0.56870826  0.81658441  0.04322204    -0.27100
F1357       F  0.53312189  0.85946394  0.03302571    -0.19200
H1358       H  0.55787064  0.87226526  0.06221879     0.16500
F1359       F  0.59642325  0.81333841  0.06689845    -0.22900
H1360       H  0.57171868  0.80094656  0.03816318     0.18300
C1361       C  0.43236013  0.66477175  0.02901613    -0.27000
C1362       C  0.44690587  0.67887133  0.03686535     0.06600
C1363       C  0.45130127  0.67888492  0.05807856     0.26300
C1364       C  0.44087571  0.66542047  0.07126780    -0.11400
C1365       C  0.42560043  0.65185781  0.06365427    -0.25400
C1366       C  0.42166393  0.65146101  0.04224866     0.37100
C1367       C  0.45635521  0.69454559  0.02323196     0.06700
F1368       F  0.46546784  0.69219495  0.06609615    -0.19200
H1369       H  0.44424274  0.66620682  0.08760509     0.16500
F1370       F  0.40717623  0.63859163  0.03410062    -0.22900
H1371       H  0.42871362  0.66462648  0.01271998     0.18300
C1372       C  0.46805725  0.68890791  0.00585126     0.26300
C1373       C  0.47718677  0.70410563  0.99349769    -0.11400
C1374       C  0.47458996  0.72515594  0.99815793    -0.25500
C1375       C  0.46229308  0.73066920  0.01525421     0.37200
C1376       C  0.45346142  0.71550390  0.02768642    -0.27100
F1377       F  0.47114880  0.66873482  0.00119309    -0.19200
H1378       H  0.48664048  0.69939681  0.98054579     0.16500
F1379       F  0.45840256  0.75074669  0.01975357    -0.22900
H1380       H  0.44411777  0.72013169  0.04075678     0.18300
C1381       C  0.46120133  0.56589849  0.17552903    -0.27000
C1382       C  0.46382365  0.54488554  0.17084070     0.06600
C1383       C  0.45142008  0.53611627  0.15511764     0.26300
C1384       C  0.43657481  0.54810399  0.14473347    -0.11400
C1385       C  0.43428025  0.56911616  0.14939520    -0.25400
C1386       C  0.44686109  0.57793564  0.16478847     0.37100
C1387       C  0.47863101  0.53229001  0.18332252     0.06700
F1388       F  0.45380809  0.51607625  0.14956433    -0.19200
H1389       H  0.42706203  0.54105959  0.13287397     0.16500
F1390       F  0.44460234  0.59805273  0.17015137    -0.22900
H1391       H  0.46990698  0.57298891  0.18795249     0.18300
C1392       C  0.49818682  0.54019554  0.18918662     0.26300
C1393       C  0.51060679  0.52967393  0.20342421    -0.11400
C1394       C  0.50403314  0.51089281  0.21193412    -0.25500
C1395       C  0.48525085  0.50219579  0.20485038     0.37200
C1396       C  0.47262834  0.51291507  0.19093256    -0.27100
F1397       F  0.50517878  0.55833494  0.18146882    -0.19200
H1398       H  0.52502286  0.53669609  0.20843125     0.16500
F1399       F  0.47888494  0.48345357  0.21162359    -0.22900
H1400       H  0.45772362  0.50637075  0.18679833     0.18300
C1401       C  0.31483061  0.43432647  0.44174939    -0.27000
C1402       C  0.31987975  0.45526665  0.43958522     0.06600
C1403       C  0.33804969  0.46066297  0.42885051     0.26300
C1404       C  0.35017418  0.44535014  0.41944118    -0.11400
C1405       C  0.34421921  0.42453628  0.42045582    -0.25400
C1406       C  0.32671959  0.41912126  0.43217771     0.37100
C1407       C  0.30550147  0.47111354  0.44789857     0.06700
F1408       F  0.34335849  0.48074526  0.42635500    -0.19200
H1409       H  0.36347565  0.44986679  0.41034405     0.16500
F1410       F  0.32079190  0.39911780  0.43397068    -0.22900
H1411       H  0.30127516  0.42975713  0.45045164     0.18300
C1412       C  0.28406792  0.46971025  0.44383352     0.26300
C1413       C  0.27018966  0.48313891  0.45341442    -0.11400
C1414       C  0.27733661  0.49836313  0.46708631    -0.25500
C1415       C  0.29883739  0.50061549  0.47027487     0.37200
C1416       C  0.31279530  0.48702469  0.46076621    -0.27100
F1417       F  0.27648301  0.45511453  0.43080102    -0.19200
H1418       H  0.25370948  0.48131769  0.45057130     0.16500
F1419       F  0.30623554  0.51505067  0.48357921    -0.22900
H1420       H  0.32920367  0.48836331  0.46416828     0.18300
C1421       C  0.44098150  0.44935145  0.31600135    -0.27000
C1422       C  0.46144625  0.44938355  0.32347113     0.06600
C1423       C  0.46605572  0.43836376  0.34157933     0.26300
C1424       C  0.45052218  0.42689512  0.35147344    -0.11400
C1425       C  0.43029775  0.42606203  0.34328945    -0.25400
C1426       C  0.42559056  0.43781058  0.32569867     0.37100
C1427       C  0.47768887  0.46013859  0.31135425     0.06700
F1428       F  0.48554761  0.43852988  0.34956695    -0.19200
H1429       H  0.45450342  0.41800786  0.36500741     0.16500
F1430       F  0.40612096  0.43791868  0.31763656    -0.22900
H1431       H  0.43704333  0.45772409  0.30212467     0.18300
C1432       C  0.49532195  0.44953918  0.30415522     0.26300
C1433       C  0.50837918  0.45866386  0.28954118    -0.11400
C1434       C  0.50400404  0.47839359  0.28176294    -0.25500
C1435       C  0.48714423  0.48946624  0.28998436     0.37200
C1436       C  0.47413996  0.48037524  0.30457576    -0.27100
F1437       F  0.49903028  0.42979796  0.30996644    -0.19200
H1438       H  0.52122201  0.44981886  0.28340281     0.16500
F1439       F  0.48292719  0.50891080  0.28353761    -0.22900
H1440       H  0.46077484  0.48888817  0.31006033     0.18300
C1441       C  0.29829162  0.30154392  0.41470757    -0.27000
C1442       C  0.30536825  0.28108361  0.41497370     0.06600
C1443       C  0.32289464  0.27584916  0.40314166     0.26300
C1444       C  0.33378728  0.29112755  0.39239908    -0.11400
C1445       C  0.32726208  0.31184606  0.39299067    -0.25400
C1446       C  0.30895975  0.31673535  0.40383183     0.37100
C1447       C  0.29489212  0.26595539  0.42865392     0.06700
F1448       F  0.32957547  0.25603467  0.40204454    -0.19200
H1449       H  0.34762567  0.28678797  0.38400956     0.16500
F1450       F  0.30181642  0.33638624  0.40490096    -0.22900
H1451       H  0.28488264  0.30602341  0.42369212     0.18300
C1452       C  0.30636069  0.25382805  0.44263017     0.26300
C1453       C  0.29613173  0.24188213  0.45738629    -0.11400
C1454       C  0.27441568  0.24217908  0.45877012    -0.25500
C1455       C  0.26291105  0.25374613  0.44452133     0.37200
C1456       C  0.27307454  0.26536417  0.42949954    -0.27100
F1457       F  0.32741045  0.25464349  0.44307531    -0.19200
H1458       H  0.30519773  0.23319980  0.46844046     0.16500
F1459       F  0.24186140  0.25409720  0.44541274    -0.22900
H1460       H  0.26388851  0.27445704  0.41889062     0.18300
C1461       C  0.29633308  0.43319158  0.31648469    -0.27000
C1462       C  0.29129331  0.42685780  0.29634378     0.06600
C1463       C  0.30122143  0.40923425  0.28818540     0.26300
C1464       C  0.31584950  0.39838442  0.29999058    -0.11400
C1465       C  0.32035431  0.40458548  0.32023391    -0.25400
C1466       C  0.31045360  0.42204873  0.32840082     0.37100
C1467       C  0.27616624  0.43912549  0.28398850     0.06700
F1468       F  0.29647569  0.40220482  0.26902336    -0.19200
H1469       H  0.32335874  0.38493587  0.29349361     0.16500
F1470       F  0.31501865  0.42876854  0.34772931    -0.22900
H1471       H  0.28955238  0.44701637  0.32296868     0.18300
C1472       C  0.25774683  0.44673715  0.29291659     0.26300
C1473       C  0.24456769  0.45975039  0.28176492    -0.11400
C1474       C  0.24923065  0.46528127  0.26137680    -0.25500
C1475       C  0.26712361  0.45683565  0.25210762     0.37200
C1476       C  0.28050938  0.44416211  0.26339699    -0.27100
F1477       F  0.25244016  0.44164505  0.31248558    -0.19200
H1478       H  0.23096132  0.46595063  0.28933067     0.16500
F1479       F  0.27173241  0.46076742  0.23208938    -0.22900
H1480       H  0.29457986  0.43869851  0.25611232     0.18300
C1481       C  0.47544334  0.29807842  0.27356769    -0.27000
C1482       C  0.45426718  0.29873813  0.26861383     0.06600
C1483       C  0.44712570  0.28878730  0.25072489     0.26300
C1484       C  0.46090487  0.27739347  0.23855217    -0.11400
C1485       C  0.48201972  0.27593476  0.24396732    -0.25400
C1486       C  0.48927902  0.28696415  0.26128667     0.37100
C1487       C  0.43964414  0.30877350  0.28292985     0.06700
F1488       F  0.42667637  0.28921318  0.24565460    -0.19200
H1489       H  0.45489194  0.26899792  0.22538394     0.16500
F1490       F  0.50971738  0.28689750  0.26644414    -0.22900
H1491       H  0.48118693  0.30595795  0.28717299     0.18300
C1492       C  0.43671238  0.30066129  0.30272123     0.26300
C1493       C  0.42360153  0.31055873  0.31669184    -0.11400
C1494       C  0.41332204  0.32891089  0.31129772    -0.25500
C1495       C  0.41605502  0.33682217  0.29121262     0.37200
C1496       C  0.42901977  0.32669562  0.27715267    -0.27100
F1497       F  0.44663077  0.28315388  0.30855041    -0.19200
H1498       H  0.42191213  0.30404997  0.33193095     0.16500
F1499       F  0.40661561  0.35452393  0.28520906    -0.22900
H1500       H  0.43118855  0.33310539  0.26192516     0.18300
C1501       C  0.47703080  0.30873336  0.47397084    -0.27000
C1502       C  0.45581214  0.31259608  0.47676867     0.06600
C1503       C  0.44575403  0.30422213  0.49408909     0.26300
C1504       C  0.45652013  0.29125640  0.50765622    -0.11400
C1505       C  0.47744736  0.28634507  0.50411140    -0.25400
C1506       C  0.48778935  0.29581809  0.48748448     0.37100
C1507       C  0.44391663  0.32347888  0.46047331     0.06700
F1508       F  0.42535751  0.30813895  0.49754632    -0.19200
H1509       H  0.44821217  0.28423366  0.52031147     0.16500
F1510       F  0.50821051  0.29209205  0.48391131    -0.22900
H1511       H  0.48508050  0.31496045  0.46073859     0.18300
C1512       C  0.45022556  0.34279925  0.45286480     0.26300
C1513       C  0.43931245  0.35213718  0.43663666    -0.11400
C1514       C  0.42232458  0.34209274  0.42740973    -0.25500
C1515       C  0.41607273  0.32277670  0.43509389     0.37200
C1516       C  0.42670352  0.31369318  0.45148551    -0.27100
F1517       F  0.46687571  0.35263879  0.46115320    -0.19200
H1518       H  0.44440919  0.36697878  0.43098182     0.16500
F1519       F  0.39946980  0.31271979  0.42693808    -0.22900
H1520       H  0.42175581  0.29869982  0.45687797     0.18300
C1521       C  0.52157484  0.06424471  0.33437384    -0.27000
C1522       C  0.52690060  0.04460749  0.32716727     0.06600
C1523       C  0.54560005  0.03557102  0.33354646     0.26300
C1524       C  0.55933443  0.04653076  0.34617496    -0.11400
C1525       C  0.55471187  0.06677986  0.35249511    -0.25400
C1526       C  0.53530024  0.07531269  0.34694997     0.37100
C1527       C  0.51439079  0.03477137  0.31087908     0.06700
F1528       F  0.55096531  0.01649460  0.32676329    -0.19200
H1529       H  0.57400733  0.03947646  0.35022007     0.16500
F1530       F  0.53002480  0.09479654  0.35253157    -0.22900
H1531       H  0.50724748  0.07141381  0.32938419     0.18300
C1532       C  0.49590287  0.02428802  0.31535617     0.26300
C1533       C  0.48494123  0.01425183  0.29956844    -0.11400
C1534       C  0.49222333  0.01477928  0.27913135    -0.25500
C1535       C  0.51031602  0.02615299  0.27470095     0.37200
C1536       C  0.52134757  0.03584128  0.29049363    -0.27100
F1537       F  0.48879233  0.02335404  0.33500445    -0.19200
H1538       H  0.47108387  0.00564334  0.30339454     0.16500
F1539       F  0.51725181  0.02812775  0.25505745    -0.22900
H1540       H  0.53540014  0.04423138  0.28683492     0.18300
C1541       C  0.69989394  0.08407104  0.30968927    -0.27000
C1542       C  0.70223227  0.06258930  0.31091346     0.06600
C1543       C  0.68829655  0.05118215  0.32292931     0.26300
C1544       C  0.67248839  0.06111326  0.33375228    -0.11400
C1545       C  0.67023187  0.08269319  0.33298419    -0.25400
C1546       C  0.68412087  0.09411959  0.32070523     0.37100
C1547       C  0.71892691  0.05189185  0.29945922     0.06700
F1548       F  0.68976091  0.03032996  0.32391731    -0.19200
H1549       H  0.66210031  0.05179387  0.34294158     0.16500
F1550       F  0.68248226  0.11491711  0.31923567    -0.22900
H1551       H  0.71045155  0.09306913  0.30036661     0.18300
C1552       C  0.71944864  0.05239567  0.27783765     0.26300
C1553       C  0.73380140  0.04033145  0.26707099    -0.11400
C1554       C  0.74797624  0.02771257  0.27767184    -0.25500
C1555       C  0.74802814  0.02788896  0.29933890     0.37200
C1556       C  0.73352314  0.03982215  0.31010869    -0.27100
F1557       F  0.70531113  0.06361211  0.26712374    -0.19200
H1558       H  0.73346159  0.04034260  0.25039199     0.16500
F1559       F  0.76119692  0.01557621  0.31005744    -0.22900
H1560       H  0.73329167  0.03924052  0.32677713     0.18300
C1561       C  0.68346288  0.20444786  0.40483144    -0.27000
C1562       C  0.68406695  0.20694318  0.42631892     0.06600
C1563       C  0.67350889  0.19279414  0.43880519     0.26300
C1564       C  0.66268204  0.17632929  0.42994577    -0.11400
C1565       C  0.66196464  0.17363556  0.40839031    -0.25400
C1566       C  0.67236890  0.18807868  0.39587015     0.37100
C1567       C  0.69647426  0.22364723  0.43590693     0.06700
F1568       F  0.67413992  0.19459275  0.45965496    -0.19200
H1569       H  0.65482935  0.16566063  0.44008829     0.16500
F1570       F  0.67189450  0.18646339  0.37501794    -0.22900
H1571       H  0.69155717  0.21523760  0.39500707     0.18300
C1572       C  0.71823402  0.22329027  0.43475260     0.26300
C1573       C  0.73006197  0.23722422  0.44636532    -0.11400
C1574       C  0.72038242  0.25190503  0.45909250    -0.25500
C1575       C  0.69858103  0.25300822  0.45933558     0.37200
C1576       C  0.68674431  0.23885231  0.44793965    -0.27100
F1577       F  0.72803889  0.20856927  0.42350185    -0.19200
H1578       H  0.74682030  0.23601460  0.44611995     0.16500
F1579       F  0.68875409  0.26673313  0.47176507    -0.22900
H1580       H  0.66998518  0.23926505  0.44905569     0.18300
C1581       C  0.55694644  0.16838853  0.29818873    -0.27000
C1582       C  0.56931724  0.18213037  0.28698362     0.06600
C1583       C  0.59038505  0.18436973  0.29231412     0.26300
C1584       C  0.59874528  0.17325409  0.30885324    -0.11400
C1585       C  0.58616591  0.15996083  0.32049947    -0.25400
C1586       C  0.56518199  0.15741356  0.31474497     0.37100
C1587       C  0.55949560  0.19521758  0.27104053     0.06700
F1588       F  0.60283546  0.19733948  0.28157166    -0.19200
H1589       H  0.61494308  0.17537625  0.31280603     0.16500
F1590       F  0.55250562  0.14429266  0.32505641    -0.22900
H1591       H  0.54064271  0.16659508  0.29449160     0.18300
C1592       C  0.54679518  0.18657304  0.25558000     0.26300
C1593       C  0.53517650  0.19932112  0.24256237    -0.11400
C1594       C  0.53590677  0.22082579  0.24491389    -0.25500
C1595       C  0.54937108  0.22944943  0.25971465     0.37200
C1596       C  0.56104716  0.21673246  0.27261979    -0.27100
F1597       F  0.54527090  0.16581015  0.25339921    -0.19200
H1598       H  0.52496015  0.19238930  0.23122809     0.16500
F1599       F  0.55092276  0.25020569  0.26196147    -0.22900
H1600       H  0.57060522  0.22370478  0.28448296     0.18300
C1601       C  0.56206779  0.16225902  0.47166920    -0.27000
C1602       C  0.54716793  0.17640368  0.46476595     0.06600
C1603       C  0.54120123  0.17624740  0.44393680     0.26300
C1604       C  0.55069707  0.16276685  0.43006461    -0.11400
C1605       C  0.56652201  0.14935624  0.43663388    -0.25400
C1606       C  0.57175972  0.14886473  0.45775735     0.37100
C1607       C  0.53877009  0.19216962  0.47893399     0.06700
F1608       F  0.52646494  0.18946501  0.43693205    -0.19200
H1609       H  0.54625770  0.16351195  0.41398466     0.16500
F1610       F  0.58664353  0.13591874  0.46493091    -0.22900
H1611       H  0.56678577  0.16216559  0.48769178     0.18300
C1612       C  0.52813798  0.18663171  0.49695865     0.26300
C1613       C  0.51907677  0.20185083  0.50934467    -0.11400
C1614       C  0.52076252  0.22281537  0.50408636    -0.25500
C1615       C  0.53252696  0.22829454  0.48664110     0.37200
C1616       C  0.54121589  0.21307902  0.47412880    -0.27100
F1617       F  0.52575218  0.16650222  0.50207622    -0.19200
H1618       H  0.51011440  0.19717606  0.52262713     0.16500
F1619       F  0.53570084  0.24836325  0.48166281    -0.22900
H1620       H  0.54986009  0.21761162  0.46057669     0.18300
C1621       C  0.68105101  0.99973411  0.47130428    -0.27000
C1622       C  0.68664716  0.01835254  0.46180473     0.06600
C1623       C  0.70769696  0.02383236  0.46081228     0.26300
C1624       C  0.72281130  0.01113475  0.46947235    -0.11400
C1625       C  0.71733984  0.99283897  0.47972812    -0.25400
C1626       C  0.69622042  0.98709918  0.48033824     0.37100
C1627       C  0.67076352  0.03214321  0.45272885     0.06700
F1628       F  0.71369491  0.04142389  0.45122119    -0.19200
H1629       H  0.73890700  0.01573868  0.46822526     0.16500
F1630       F  0.69008991  0.96982207  0.49037591    -0.22900
H1631       H  0.66488904  0.99527063  0.47218057     0.18300
C1632       C  0.65782536  0.02528570  0.43668662     0.26300
C1633       C  0.64511768  0.03926925  0.42618613    -0.11400
C1634       C  0.64499837  0.06034322  0.43153636    -0.25500
C1635       C  0.65704497  0.06687363  0.44851931     0.37200
C1636       C  0.66981712  0.05287952  0.45889979    -0.27100
F1637       F  0.65847995  0.00536187  0.43027856    -0.19200
H1638       H  0.63599838  0.03369331  0.41329879     0.16500
F1639       F  0.65740803  0.08693830  0.45449550    -0.22900
H1640       H  0.67955003  0.05837810  0.47137923     0.18300
C1641       C  0.15969678  0.44751800  0.54357399    -0.27000
C1642       C  0.17925505  0.45515573  0.54958452     0.06600
C1643       C  0.18854556  0.44745533  0.56759801     0.26300
C1644       C  0.17859569  0.43237350  0.57921475    -0.11400
C1645       C  0.15908394  0.42464000  0.57330642    -0.25400
C1646       C  0.14957597  0.43246431  0.55540069     0.37100
C1647       C  0.19046390  0.47058970  0.53692039     0.06700
F1648       F  0.20762743  0.45402988  0.57365308    -0.19200
H1649       H  0.18625507  0.42669864  0.59295087     0.16500
F1650       F  0.13090420  0.42513691  0.54898275    -0.22900
H1651       H  0.15227951  0.45322645  0.52972861     0.18300
C1652       C  0.19447977  0.46690211  0.51596285     0.26300
C1653       C  0.20739088  0.48022294  0.50492720    -0.11400
C1654       C  0.21688087  0.49729771  0.51459410    -0.25500
C1655       C  0.21210253  0.50141970  0.53537952     0.37200
C1656       C  0.19891217  0.48826425  0.54629831    -0.27100
F1657       F  0.18699662  0.44975652  0.50646991    -0.19200
H1658       H  0.21047747  0.47679930  0.48888472     0.16500
F1659       F  0.22116831  0.51731252  0.54563213    -0.22900
H1660       H  0.19590478  0.49145620  0.56240097     0.18300
C1661       C  0.09222831  0.31377498  0.71723626    -0.27000
C1662       C  0.08032120  0.29653881  0.71141750     0.06600
C1663       C  0.08008912  0.29053397  0.69055139     0.26300
C1664       C  0.09101210  0.30189763  0.67586791    -0.11400
C1665       C  0.10211526  0.31973695  0.68148364    -0.25400
C1666       C  0.10299323  0.32531182  0.70248071     0.37100
C1667       C  0.06643155  0.28632834  0.72659335     0.06700
F1668       F  0.06807140  0.27459667  0.68402404    -0.19200
H1669       H  0.08982496  0.29727692  0.65985441     0.16500
F1670       F  0.11378496  0.34217998  0.70875042    -0.22900
H1671       H  0.09271909  0.31865593  0.73320760     0.18300
C1672       C  0.06496124  0.26469545  0.72780942     0.26300
C1673       C  0.04946022  0.25552823  0.73978536    -0.11400
C1674       C  0.03559444  0.26771748  0.75117643    -0.25500
C1675       C  0.03791876  0.28921957  0.75110854     0.37200
C1676       C  0.05315110  0.29842031  0.73884848    -0.27100
F1677       F  0.07830272  0.25244010  0.71721922    -0.19200
H1678       H  0.04799377  0.23889133  0.73988799     0.16500
F1679       F  0.02462319  0.30135297  0.76188408    -0.22900
H1680       H  0.05390502  0.31508178  0.73817514     0.18300
C1681       C  0.05803448  0.30771673  0.55707425    -0.27000
C1682       C  0.06245388  0.31129857  0.53621635     0.06600
C1683       C  0.07466297  0.32847309  0.53087759     0.26300
C1684       C  0.08316412  0.34112329  0.54632612    -0.11400
C1685       C  0.07972721  0.33668267  0.56723376    -0.25400
C1686       C  0.06663804  0.32015319  0.57243505     0.37100
C1687       C  0.05452647  0.29663429  0.52045597     0.06700
F1688       F  0.07937611  0.33228870  0.51086941    -0.19200
H1689       H  0.09339890  0.35360894  0.54199671     0.16500
F1690       F  0.06255663  0.31569700  0.59245852    -0.22900
H1691       H  0.04821579  0.29494114  0.56151031     0.18300
C1692       C  0.05738176  0.27528551  0.52301210     0.26300
C1693       C  0.04778695  0.26131983  0.50962834    -0.11400
C1694       C  0.03520795  0.26830221  0.49338055    -0.25500
C1695       C  0.03323534  0.28967939  0.49014468     0.37200
C1696       C  0.04284861  0.30369398  0.50359411    -0.27100
F1697       F  0.06919104  0.26790505  0.53870286    -0.19200
H1698       H  0.04977276  0.24496966  0.51225725     0.16500
F1699       F  0.02090178  0.29704682  0.47486327    -0.22900
H1700       H  0.04034851  0.32003451  0.50141639     0.18300
C1701       C  0.18784247  0.43077971  0.69981662    -0.27000
C1702       C  0.20872658  0.43253049  0.69391773     0.06600
C1703       C  0.21605990  0.42048342  0.67748138     0.26300
C1704       C  0.20258573  0.40731791  0.66681151    -0.11400
C1705       C  0.18149211  0.40581883  0.67231522    -0.25400
C1706       C  0.17432247  0.41754613  0.68921715     0.37100
C1707       C  0.22265068  0.44731447  0.70459476     0.06700
F1708       F  0.23606697  0.42211167  0.67115838    -0.19200
H1709       H  0.20862915  0.39866265  0.65387860     0.16500
F1710       F  0.15417151  0.41673424  0.69523578    -0.22900
H1711       H  0.18196641  0.43982403  0.71256800     0.18300
C1712       C  0.21742269  0.46829215  0.70586033     0.26300
C1713       C  0.23055290  0.48214179  0.71603136    -0.11400
C1714       C  0.24901439  0.47534491  0.72546353    -0.25500
C1715       C  0.25433902  0.45432688  0.72397854     0.37200
C1716       C  0.24130308  0.44051488  0.71352113    -0.27100
F1717       F  0.19972257  0.47545419  0.69703066    -0.19200
H1718       H  0.22619269  0.49823274  0.71663039     0.16500
F1719       F  0.27160966  0.44690721  0.73340075    -0.22900
H1720       H  0.24550510  0.42438909  0.71281898     0.18300
C1721       C  0.23117444  0.27808983  0.54447317    -0.27000
C1722       C  0.21281950  0.27108116  0.55374359     0.06600
C1723       C  0.20548194  0.25122991  0.54869727     0.26300
C1724       C  0.21578303  0.23918558  0.53400934    -0.11400
C1725       C  0.23391787  0.24638376  0.52434652    -0.25400
C1726       C  0.24180471  0.26583627  0.53023374     0.37100
C1727       C  0.20071999  0.28504847  0.56744744     0.06700
F1728       F  0.18831714  0.24342672  0.55795082    -0.19200
H1729       H  0.20925927  0.22434158  0.52993587     0.16500
F1730       F  0.25995187  0.27303164  0.52246800    -0.22900
H1731       H  0.23713695  0.29332659  0.54789567     0.18300
C1732       C  0.21045690  0.29751878  0.58248931     0.26300
C1733       C  0.19884257  0.31172527  0.59400727    -0.11400
C1734       C  0.17731491  0.31334247  0.59109986    -0.25500
C1735       C  0.16755993  0.30062155  0.57638975     0.37200
C1736       C  0.17917867  0.28683688  0.56460617    -0.27100
F1737       F  0.23113142  0.29587114  0.58620328    -0.19200
H1738       H  0.20662157  0.32134606  0.60529010     0.16500
F1739       F  0.14687866  0.30224847  0.57260854    -0.22900
H1740       H  0.17133531  0.27797755  0.55276562     0.18300
C1741       C  0.02175432  0.47035521  0.67841899    -0.27000
C1742       C  0.01845704  0.44906327  0.67648391     0.06600
C1743       C  0.00190051  0.43992286  0.68724903     0.26300
C1744       C  0.98965559  0.45173304  0.70059319    -0.11400
C1745       C  0.99379090  0.47280311  0.70350430    -0.25400
C1746       C  0.00957725  0.48214731  0.69180014     0.37100
C1747       C  0.03410392  0.43619964  0.66576609     0.06700
F1748       F  0.99802647  0.41943194  0.68536065    -0.19200
H1749       H  0.97753595  0.44422073  0.70933140     0.16500
F1750       F  0.01351572  0.50263012  0.69362119    -0.22900
H1751       H  0.03447011  0.47767790  0.67037698     0.18300
C1752       C  0.04070849  0.44051829  0.64556076     0.26300
C1753       C  0.05717497  0.42938040  0.63679217    -0.11400
C1754       C  0.06749315  0.41406489  0.64819622    -0.25500
C1755       C  0.06040634  0.40950177  0.66822713     0.37200
C1756       C  0.04392566  0.42043030  0.67679768    -0.27100
F1757       F  0.03133374  0.45554576  0.63439853    -0.19200
H1758       H  0.06219363  0.43309325  0.62133391     0.16500
F1759       F  0.06940171  0.39446380  0.67969549    -0.22900
H1760       H  0.03926644  0.41700494  0.69243973     0.18300
C1761       C  0.64991864  0.48977991  0.22964094    -0.27000
C1762       C  0.63877344  0.49260367  0.24796420     0.06600
C1763       C  0.64961363  0.49457964  0.26667403     0.26300
C1764       C  0.67134115  0.49362749  0.26699154    -0.11400
C1765       C  0.68256569  0.49037491  0.24869885    -0.25400
C1766       C  0.67161370  0.48855487  0.22996002     0.37100
C1767       C  0.61582208  0.49283383  0.24750945     0.06700
F1768       F  0.63915680  0.49746771  0.28459235    -0.19200
H1769       H  0.67940688  0.49503482  0.28159850     0.16500
F1770       F  0.68190412  0.48591174  0.21191235    -0.22900
H1771       H  0.64175084  0.48825596  0.21510014     0.18300
C1772       C  0.60494923  0.50972976  0.23941720     0.26300
C1773       C  0.58320093  0.50966548  0.23899314    -0.11400
C1774       C  0.57192246  0.49263915  0.24641415    -0.25500
C1775       C  0.58299096  0.47554891  0.25413493     0.37200
C1776       C  0.60470862  0.47579471  0.25482658    -0.27100
F1777       F  0.61538009  0.52640868  0.23224653    -0.19200
H1778       H  0.57516840  0.52308455  0.23313378     0.16500
F1779       F  0.57288862  0.45834149  0.26047916    -0.22900
H1780       H  0.61291807  0.46252319  0.26079983     0.18300
C1781       C  0.72556690  0.39609420  0.49777787    -0.27000
C1782       C  0.74399421  0.38460578  0.49802406     0.06600
C1783       C  0.76307254  0.39499420  0.49961673     0.26300
C1784       C  0.76364823  0.41654388  0.50111187    -0.11400
C1785       C  0.74521614  0.42818584  0.50083251    -0.25400
C1786       C  0.72610534  0.41765678  0.49894729     0.37100
C1787       C  0.74325909  0.36182228  0.49626198     0.06700
F1788       F  0.78113471  0.38423959  0.50007329    -0.19200
H1789       H  0.77853871  0.42412799  0.50269700     0.16500
F1790       F  0.70795354  0.42817620  0.49748286    -0.22900
H1791       H  0.71075017  0.38833759  0.49626412     0.18300
C1792       C  0.73475414  0.34975779  0.51210955     0.26300
C1793       C  0.73468234  0.32820242  0.51050612    -0.11400
C1794       C  0.74261780  0.31838871  0.49287321    -0.25500
C1795       C  0.75075341  0.33049573  0.47685877     0.37200
C1796       C  0.75123530  0.35201968  0.47866284    -0.27100
F1797       F  0.72695500  0.35882250  0.52930849    -0.19200
H1798       H  0.72837068  0.31912763  0.52300201     0.16500
F1799       F  0.75877188  0.32146002  0.45974685    -0.22900
H1800       H  0.75780058  0.36109034  0.46629335     0.18300
C1801       C  0.84917898  0.48624056  0.75797894    -0.27000
C1802       C  0.85925602  0.49517393  0.74098178     0.06600
C1803       C  0.84696858  0.50456186  0.72563909     0.26300
C1804       C  0.82531956  0.50476639  0.72728617    -0.11400
C1805       C  0.81527661  0.49633933  0.74457633    -0.25400
C1806       C  0.82759406  0.48723924  0.76006872     0.37100
C1807       C  0.88243481  0.49492969  0.73957313     0.06700
F1808       F  0.85579126  0.51417556  0.70929764    -0.19200
H1809       H  0.81642835  0.51168924  0.71494949     0.16500
F1810       F  0.81899364  0.47995290  0.77767826    -0.22900
H1811       H  0.85801087  0.47852066  0.76986525     0.18300
C1812       C  0.89493690  0.49825046  0.75712425     0.26300
C1813       C  0.91657782  0.49788021  0.75562682    -0.11400
C1814       C  0.92652809  0.49522144  0.73648863    -0.25500
C1815       C  0.91396369  0.49226244  0.71884479     0.37200
C1816       C  0.89231338  0.49158455  0.72054431    -0.27100
F1817       F  0.88636240  0.50253573  0.77573852    -0.19200
H1818       H  0.92549537  0.49981252  0.76963432     0.16500
F1819       F  0.92234071  0.49078777  0.69973128    -0.22900
H1820       H  0.88328255  0.48857298  0.70679049     0.18300
C1821       C  0.35091852  0.48245867  0.74574967    -0.27000
C1822       C  0.36286875  0.50002494  0.75033770     0.06600
C1823       C  0.35237007  0.51848453  0.75516115     0.26300
C1824       C  0.33068611  0.51942702  0.75447944    -0.11400
C1825       C  0.31866392  0.50177139  0.75019906    -0.25400
C1826       C  0.32922672  0.48306220  0.74636121     0.37100
C1827       C  0.38608328  0.49905258  0.74988460     0.06700
F1828       F  0.36294015  0.53562490  0.76106170    -0.19200
H1829       H  0.32342559  0.53417057  0.75735083     0.16500
F1830       F  0.31880339  0.46505142  0.74383993    -0.22900
H1831       H  0.35830483  0.46805758  0.74164516     0.18300
C1832       C  0.39698688  0.48157109  0.75696482     0.26300
C1833       C  0.41867324  0.48092117  0.75612706    -0.11400
C1834       C  0.43018321  0.49789143  0.74901395    -0.25500
C1835       C  0.41931967  0.51551764  0.74235959     0.37200
C1836       C  0.39762944  0.51578596  0.74226479    -0.27100
F1837       F  0.38686204  0.46527768  0.76533140    -0.19200
H1838       H  0.42647656  0.46707152  0.76128377     0.16500
F1839       F  0.42953533  0.53288963  0.73668133    -0.22900
H1840       H  0.38990168  0.52929646  0.73622494     0.18300
C1841       C  0.76011572  0.85024382  0.52010447    -0.27000
C1842       C  0.75544645  0.85946300  0.50115611     0.06600
C1843       C  0.75267200  0.84709801  0.48360537     0.26300
C1844       C  0.75423088  0.82565335  0.48511051    -0.11400
C1845       C  0.75864158  0.81627297  0.50414425    -0.25400
C1846       C  0.76178289  0.82881945  0.52163601     0.37100
C1847       C  0.75377846  0.88204733  0.49980231     0.06700
F1848       F  0.74822503  0.85578075  0.46510704    -0.19200
H1849       H  0.75159329  0.81634646  0.47147933     0.16500
F1850       F  0.76684524  0.82040972  0.54011180    -0.22900
H1851       H  0.76254723  0.85969042  0.53368444     0.18300
C1852       C  0.73515836  0.89207537  0.50482845     0.26300
C1853       C  0.73400001  0.91361270  0.50424131    -0.11400
C1854       C  0.75147833  0.92538403  0.49884723    -0.25500
C1855       C  0.77000456  0.91518289  0.49345572     0.37200
C1856       C  0.77108048  0.89367799  0.49393088    -0.27100
F1857       F  0.71823030  0.88101751  0.51051831    -0.19200
H1858       H  0.71962820  0.92113284  0.50851385     0.16500
F1859       F  0.78701533  0.92600338  0.48755568    -0.22900
H1860       H  0.78548563  0.88606803  0.48992353     0.18300
C1861       C  0.51534680  0.73444618  0.39033627    -0.27000
C1862       C  0.49924176  0.74499870  0.38012188     0.06600
C1863       C  0.48390273  0.75468432  0.39222609     0.26300
C1864       C  0.48450838  0.75342133  0.41372049    -0.11400
C1865       C  0.50086481  0.74332206  0.42398417    -0.25400
C1866       C  0.51646835  0.73399171  0.41191998     0.37100
C1867       C  0.49844520  0.74584020  0.35703812     0.06700
F1868       F  0.46854108  0.76598276  0.38343518    -0.19200
H1869       H  0.47205775  0.76055464  0.42232120     0.16500
F1870       F  0.53324732  0.72501279  0.42082543    -0.22900
H1871       H  0.52720927  0.72648577  0.38164659     0.18300
C1872       C  0.51657364  0.74825283  0.34512071     0.26300
C1873       C  0.51545773  0.74884120  0.32355581    -0.11400
C1874       C  0.49623441  0.74793574  0.31319478    -0.25500
C1875       C  0.47806455  0.74615552  0.32521391     0.37200
C1876       C  0.47929810  0.74447353  0.34666086    -0.27100
F1877       F  0.53541779  0.75062351  0.35421452    -0.19200
H1878       H  0.52982036  0.74999664  0.31502079     0.16500
F1879       F  0.45891311  0.74672503  0.31647382    -0.22900
H1880       H  0.46504230  0.74217865  0.35514399     0.18300
C1881       C  0.49396581  0.73273055  0.85219059    -0.27000
C1882       C  0.49553026  0.75157969  0.86276786     0.06600
C1883       C  0.49680502  0.76998915  0.85149375     0.26300
C1884       C  0.49619809  0.76951977  0.82996747    -0.11400
C1885       C  0.49470965  0.75068643  0.81935284    -0.25400
C1886       C  0.49374967  0.73223090  0.83062016     0.37100
C1887       C  0.49557030  0.75204163  0.88554727     0.06700
F1888       F  0.49822822  0.78843466  0.86132735    -0.19200
H1889       H  0.49711799  0.78387061  0.82152913     0.16500
F1890       F  0.49216822  0.71380534  0.82077707    -0.22900
H1891       H  0.49302847  0.71841326  0.86067523     0.18300
C1892       C  0.47844507  0.74473627  0.89668609     0.26300
C1893       C  0.47824320  0.74602693  0.91820680    -0.11400
C1894       C  0.49531399  0.75421505  0.92908900    -0.25500
C1895       C  0.51274506  0.76097001  0.91777695     0.37200
C1896       C  0.51267456  0.76012085  0.89623657    -0.27100
F1897       F  0.46165532  0.73690348  0.88669571    -0.19200
H1898       H  0.46451454  0.74092568  0.92631049     0.16500
F1899       F  0.53012907  0.76787160  0.92744176    -0.22900
H1900       H  0.52612652  0.76553215  0.88785107     0.18300
C1901       C  0.76879973  0.14521092  0.99205056    -0.27000
C1902       C  0.75159481  0.13427736  0.99959887     0.06600
C1903       C  0.73429686  0.14532167  0.00689015     0.26300
C1904       C  0.73412857  0.16690145  0.00624242    -0.11400
C1905       C  0.75135352  0.17777007  0.99875197    -0.25400
C1906       C  0.76878183  0.16678797  0.99178598     0.37100
C1907       C  0.75161251  0.11140063  0.99936125     0.06700
F1908       F  0.71739719  0.13522426  0.01419252    -0.19200
H1909       H  0.72063328  0.17517464  0.01176414     0.16500
F1910       F  0.78562656  0.17695332  0.98444017    -0.22900
H1911       H  0.78229818  0.13699332  0.98645647     0.18300
C1912       C  0.75457338  0.10056707  0.98080757     0.26300
C1913       C  0.75440352  0.07900205  0.98057772    -0.11400
C1914       C  0.75122082  0.06781016  0.99881305    -0.25500
C1915       C  0.74841214  0.07865505  0.01743100     0.37200
C1916       C  0.74857575  0.10026255  0.01765008    -0.27100
F1917       F  0.75700343  0.11086890  0.96279138    -0.19200
H1918       H  0.75635464  0.07100964  0.96604304     0.16500
F1919       F  0.74596133  0.06836752  0.03545333    -0.22900
H1920       H  0.74650529  0.10833176  0.03212818     0.18300
C1921       C  0.10286061  0.00647897  0.75662902    -0.27000
C1922       C  0.11389078  0.99851420  0.73975703     0.06600
C1923       C  0.10287694  0.99066218  0.72275306     0.26300
C1924       C  0.08115768  0.99093679  0.72260875    -0.11400
C1925       C  0.07005814  0.99866926  0.73956660    -0.25400
C1926       C  0.08110573  0.00641421  0.75665553     0.37100
C1927       C  0.13686701  0.99820910  0.74001116     0.06700
F1928       F  0.11316246  0.98298158  0.70618936    -0.19200
H1929       H  0.07294482  0.98485240  0.70932605     0.16500
F1930       F  0.07087147  0.01428453  0.77315982    -0.22900
H1931       H  0.11114378  0.01256654  0.76986646     0.18300
C1932       C  0.14830826  0.01663483  0.73990705     0.26300
C1933       C  0.17004932  0.01612246  0.73985772    -0.11400
C1934       C  0.18077623  0.99722418  0.74014737    -0.25500
C1935       C  0.16916814  0.97877902  0.74062281     0.37200
C1936       C  0.14745106  0.97933711  0.74033807    -0.27100
F1937       F  0.13843096  0.03510277  0.73941669    -0.19200
H1938       H  0.17850944  0.03052931  0.73936695     0.16500
F1939       F  0.17873790  0.96020127  0.74206680    -0.22900
H1940       H  0.13883473  0.96500941  0.74070155     0.18300
C1941       C  0.01797122  0.73863679  0.10523364    -0.27000
C1942       C  0.00220352  0.74889430  0.11602618     0.06600
C1943       C  0.98618248  0.75851220  0.10494287     0.26300
C1944       C  0.98566495  0.75732588  0.08342168    -0.11400
C1945       C  0.00135081  0.74690562  0.07246970    -0.25400
C1946       C  0.01774875  0.73781556  0.08369487     0.37100
C1947       C  0.00226540  0.74904144  0.13883701     0.06700
F1948       F  0.97067686  0.76851289  0.11496899    -0.19200
H1949       H  0.97274326  0.76431003  0.07536543     0.16500
F1950       F  0.03391043  0.72861915  0.07393296    -0.22900
H1951       H  0.03062387  0.73143175  0.11354085     0.18300
C1952       C  0.00222656  0.73042376  0.14984467     0.26300
C1953       C  0.00165831  0.73059349  0.17137029    -0.11400
C1954       C  0.00131571  0.74930384  0.18232232    -0.25500
C1955       C  0.00161132  0.76796020  0.17128995     0.37200
C1956       C  0.00198746  0.76777386  0.14971968    -0.27100
F1957       F  0.00218209  0.71206902  0.13974524    -0.19200
H1958       H  0.00155970  0.71605270  0.17953473     0.16500
F1959       F  0.00089874  0.78633795  0.18131394    -0.22900
H1960       H  0.00205057  0.78226624  0.14146870     0.18300
C1961       C  0.26936010  0.64353565  0.50336054    -0.27000
C1962       C  0.25214580  0.63273402  0.49543098     0.06600
C1963       C  0.23538466  0.64423456  0.48751360     0.26300
C1964       C  0.23555531  0.66574393  0.48834957    -0.11400
C1965       C  0.25292283  0.67663806  0.49586814    -0.25400
C1966       C  0.27007275  0.66511475  0.50304744     0.37100
C1967       C  0.25159899  0.60966196  0.49553424     0.06700
F1968       F  0.21894625  0.63480881  0.47835991    -0.19200
H1969       H  0.22191978  0.67379407  0.48291766     0.16500
F1970       F  0.28791652  0.67446990  0.50911587    -0.22900
H1971       H  0.28243247  0.63532115  0.50983292     0.18300
C1972       C  0.26938484  0.59778143  0.49122072     0.26300
C1973       C  0.26839959  0.57622473  0.49135719    -0.11400
C1974       C  0.24948427  0.56575162  0.49460027    -0.25500
C1975       C  0.23162696  0.57778196  0.49855116     0.37200
C1976       C  0.23294232  0.59925380  0.49971485    -0.27100
F1977       F  0.28765181  0.60686591  0.48615369    -0.19200
H1978       H  0.28265332  0.56780464  0.48869875     0.16500
F1979       F  0.21254800  0.56915344  0.50040080    -0.22900
H1980       H  0.21904089  0.60776235  0.50364570     0.18300
C1981       C  0.25200985  0.14351524  0.47999853    -0.27000
C1982       C  0.25514975  0.13398372  0.49907990     0.06600
C1983       C  0.25884827  0.14610223  0.51663762     0.26300
C1984       C  0.25931923  0.16759054  0.51509336    -0.11400
C1985       C  0.25589088  0.17732287  0.49603390    -0.25400
C1986       C  0.25219801  0.16500070  0.47844021     0.37100
C1987       C  0.25351124  0.11141959  0.50076225     0.06700
F1988       F  0.26192489  0.13710831  0.53525909    -0.19200
H1989       H  0.26238610  0.17662857  0.52882024     0.16500
F1990       F  0.24787991  0.17367675  0.45990521    -0.22900
H1991       H  0.24886750  0.13428558  0.46640278     0.18300
C1992       C  0.23527714  0.10242640  0.50836546     0.26300
C1993       C  0.23361151  0.08101072  0.50978736    -0.11400
C1994       C  0.25018835  0.06828116  0.50382576    -0.25500
C1995       C  0.26847454  0.07736113  0.49617666     0.37200
C1996       C  0.27003226  0.09880921  0.49457531    -0.27100
F1997       F  0.21904310  0.11440172  0.51422142    -0.19200
H1998       H  0.21942785  0.07433851  0.51574136     0.16500
F1999       F  0.28458408  0.06549442  0.48976878    -0.22900
H2000       H  0.28411886  0.10561207  0.48853999     0.18300
C2001       C  0.00157557  0.72402615  0.60440983    -0.27000
C2002       C  0.99757635  0.74232854  0.61522793     0.06600
C2003       C  0.99434473  0.76063327  0.60419781     0.26300
C2004       C  0.99493400  0.76052601  0.58261525    -0.11400
C2005       C  0.99899504  0.74220830  0.57163610    -0.25400
C2006       C  0.00248030  0.72393116  0.58284673     0.37100
C2007       C  0.99709113  0.74219531  0.63802848     0.06700
F2008       F  0.99028927  0.77852686  0.61430502    -0.19200
H2009       H  0.99197918  0.77476694  0.57446718     0.16500
F2010       F  0.00744432  0.70609610  0.57305455    -0.22900
H2011       H  0.00435248  0.70984725  0.61273544     0.18300
C2012       C  0.98080852  0.73246458  0.64859005     0.26300
C2013       C  0.98068798  0.73205039  0.67016869    -0.11400
C2014       C  0.99700754  0.74096188  0.68150279    -0.25500
C2015       C  0.01329988  0.75069693  0.67091575     0.37200
C2016       C  0.01322295  0.75143408  0.64933184    -0.27100
F2017       F  0.96494941  0.72355935  0.63801092    -0.19200
H2018       H  0.96796252  0.72458883  0.67807088     0.16500
F2019       F  0.02903140  0.75984878  0.68146857    -0.22900
H2020       H  0.02585587  0.75900793  0.64139925     0.18300
C2021       C  0.17209186  0.94053118  0.46168104    -0.27000
C2022       C  0.17068153  0.96144481  0.45627161     0.06600
C2023       C  0.15860296  0.96697317  0.43905781     0.26300
C2024       C  0.14881956  0.95180388  0.42716512    -0.11400
C2025       C  0.15066459  0.93082676  0.43226058    -0.25400
C2026       C  0.16212431  0.92536795  0.44994675     0.37100
C2027       C  0.18325972  0.97701648  0.46759175     0.06700
F2028       F  0.15634784  0.98703879  0.43362427    -0.19200
H2029       H  0.13996923  0.95650980  0.41377118     0.16500
F2030       F  0.16458134  0.90533836  0.45543399    -0.22900
H2031       H  0.18163656  0.93578182  0.47457672     0.18300
C2032       C  0.18466556  0.97679251  0.48926577     0.26300
C2033       C  0.19887716  0.98959274  0.49943808    -0.11400
C2034       C  0.21155090  0.00310512  0.48823083    -0.25500
C2035       C  0.20935488  0.00419345  0.46674199     0.37200
C2036       C  0.19546409  0.99114053  0.45653044    -0.27100
F2037       F  0.17259102  0.96395168  0.50057845    -0.19200
H2038       H  0.20037154  0.98863503  0.51603060     0.16500
F2039       F  0.22171603  0.01682007  0.45549649    -0.22900
H2040       H  0.19503476  0.99138283  0.43986382     0.18300
C2041       C  0.04921003  0.79688062  0.49533485    -0.27000
C2042       C  0.03780285  0.80637778  0.47946235     0.06600
C2043       C  0.01666107  0.80145910  0.47712000     0.26300
C2044       C  0.00745250  0.78665076  0.48974167    -0.11400
C2045       C  0.01904875  0.77655764  0.50504402    -0.25400
C2046       C  0.03992345  0.78213004  0.50808466     0.37100
C2047       C  0.04837538  0.82003489  0.46441635     0.06700
F2048       F  0.00495429  0.81079612  0.46244214    -0.19200
H2049       H  0.99128763  0.78274747  0.48732307     0.16500
F2050       F  0.05165591  0.77243741  0.52250442    -0.22900
H2051       H  0.06556019  0.80021324  0.49727901     0.18300
C2052       C  0.06153550  0.83608989  0.47094750     0.26300
C2053       C  0.07261370  0.84768297  0.45648819    -0.11400
C2054       C  0.07064036  0.84363800  0.43525915    -0.25500
C2055       C  0.05703826  0.82792645  0.42873052     0.37200
C2056       C  0.04612321  0.81625333  0.44318811    -0.27100
F2057       F  0.06369223  0.84055887  0.49129129    -0.19200
H2058       H  0.08294218  0.85971664  0.46191882     0.16500
F2059       F  0.05518202  0.82298869  0.40846184    -0.22900
H2060       H  0.03641317  0.80371121  0.43778399     0.18300
C2061       C  0.06221024  0.78678267  0.25997706    -0.27000
C2062       C  0.05405090  0.79715496  0.27718752     0.06600
C2063       C  0.03265357  0.79566556  0.28125119     0.26300
C2064       C  0.01977826  0.78404331  0.26840241    -0.11400
C2065       C  0.02787835  0.77346137  0.25130519    -0.25400
C2066       C  0.04927606  0.77501448  0.24711571     0.37100
C2067       C  0.06764363  0.80950126  0.29101363     0.06700
F2068       F  0.02422908  0.80498496  0.29802635    -0.19200
H2069       H  0.00337251  0.78323926  0.27190744     0.16500
F2070       F  0.05782244  0.76463537  0.23105119    -0.22900
H2071       H  0.07860253  0.78780313  0.25649807     0.18300
C2072       C  0.08582105  0.80114124  0.29975868     0.26300
C2073       C  0.09707884  0.81233953  0.31457718    -0.11400
C2074       C  0.09017709  0.83184107  0.32102637    -0.25500
C2075       C  0.07261905  0.84054607  0.31148901     0.37200
C2076       C  0.06161642  0.82953328  0.29656523    -0.27100
F2077       F  0.09199841  0.78173042  0.29491138    -0.19200
H2078       H  0.11053176  0.80537404  0.32173500     0.16500
F2079       F  0.06592336  0.85969018  0.31676668    -0.22900
H2080       H  0.04801566  0.83648966  0.28966696     0.18300
C2081       C  0.19144267  0.78654805  0.40754990    -0.27000
C2082       C  0.19081462  0.78403748  0.42903469     0.06600
C2083       C  0.17853099  0.79737191  0.44089317     0.26300
C2084       C  0.16724017  0.81306020  0.43146197    -0.11400
C2085       C  0.16785189  0.81585853  0.40994687    -0.25400
C2086       C  0.17989766  0.80219502  0.39799250     0.37100
C2087       C  0.20389554  0.76845495  0.43939864     0.06700
F2088       F  0.17805454  0.79571474  0.46174894    -0.19200
H2089       H  0.15810126  0.82314657  0.44116227     0.16500
F2090       F  0.18086339  0.80411350  0.37719562    -0.22900
H2091       H  0.20092883  0.77642573  0.39822408     0.18300
C2092       C  0.19497038  0.75356074  0.45236519     0.26300
C2093       C  0.20761694  0.74090402  0.46446299    -0.11400
C2094       C  0.22927682  0.74315380  0.46402982    -0.25500
C2095       C  0.23822692  0.75743849  0.45043847     0.37200
C2096       C  0.22558992  0.76986295  0.43807849    -0.27100
F2097       F  0.17402572  0.75174686  0.45380303    -0.19200
H2098       H  0.20048723  0.73001751  0.47491021     0.16500
F2099       F  0.25915233  0.75971998  0.44955143    -0.22900
H2100       H  0.23270290  0.78130381  0.42822857     0.18300
C2101       C  0.29426346  0.90708860  0.68652372    -0.27000
C2102       C  0.29335855  0.92870663  0.68599266     0.06600
C2103       C  0.30891436  0.93963717  0.67558918     0.26300
C2104       C  0.32462285  0.92912313  0.66523077    -0.11400
C2105       C  0.32525694  0.90743108  0.66497656    -0.25400
C2106       C  0.31001089  0.89646258  0.67603300     0.37100
C2107       C  0.27652309  0.94003115  0.69657767     0.06700
F2108       F  0.30906126  0.96056737  0.67564496    -0.19200
H2109       H  0.33616617  0.93810105  0.65713118     0.16500
F2110       F  0.31022077  0.87555841  0.67670975    -0.22900
H2111       H  0.28256324  0.89845236  0.69477824     0.18300
C2112       C  0.26410549  0.95421451  0.68573639     0.26300
C2113       C  0.25002533  0.96678110  0.69629803    -0.11400
C2114       C  0.24832382  0.96548502  0.71777688    -0.25500
C2115       C  0.26001038  0.95065861  0.72849570     0.37200
C2116       C  0.27388445  0.93790929  0.71791447    -0.27100
F2117       F  0.26606911  0.95630576  0.66501900    -0.19200
H2118       H  0.24120321  0.97821174  0.68786869     0.16500
F2119       F  0.25852701  0.94908902  0.74930312    -0.22900
H2120       H  0.28330886  0.92707889  0.72650013     0.18300
C2121       C  0.34163641  0.96503615  0.56081244    -0.27000
C2122       C  0.32536031  0.95819926  0.54814491     0.06600
C2123       C  0.32329324  0.93706012  0.54392413     0.26300
C2124       C  0.33639870  0.92286084  0.55344755    -0.11400
C2125       C  0.35164755  0.92948700  0.56750087    -0.25400
C2126       C  0.35467359  0.95080925  0.57053959     0.37100
C2127       C  0.30948822  0.97285329  0.54083237     0.06700
F2128       F  0.30805330  0.93010519  0.53119290    -0.19200
H2129       H  0.33378564  0.90660033  0.55070573     0.16500
F2130       F  0.36971205  0.95789930  0.58342824    -0.22900
H2131       H  0.34355071  0.98131290  0.56400662     0.18300
C2132       C  0.28863740  0.97011354  0.54647645     0.26300
C2133       C  0.27341664  0.98345561  0.53907381    -0.11400
C2134       C  0.27865891  0.99973842  0.52584469    -0.25500
C2135       C  0.29967421  0.00283041  0.52066270     0.37200
C2136       C  0.31496695  0.98952095  0.52825646    -0.27100
F2137       F  0.28302244  0.95453884  0.55924569    -0.19200
H2138       H  0.25742528  0.98094738  0.54354893     0.16500
F2139       F  0.30532624  0.01803336  0.50748619    -0.22900
H2140       H  0.33100498  0.99183595  0.52384211     0.18300
C2141       C  0.45935193  0.81762150  0.55422411    -0.27000
C2142       C  0.45628171  0.82112813  0.53305658     0.06600
C2143       C  0.44183550  0.83621861  0.52697266     0.26300
C2144       C  0.43011551  0.84677613  0.54174372    -0.11400
C2145       C  0.43268122  0.84273879  0.56289770    -0.25400
C2146       C  0.44786813  0.82837926  0.56900836     0.37100
C2147       C  0.46693031  0.80778820  0.51764528     0.06700
F2148       F  0.43888719  0.84066235  0.50674320    -0.19200
H2149       H  0.41874862  0.85792040  0.53655441     0.16500
F2150       F  0.45095114  0.82387441  0.58920245    -0.22900
H2151       H  0.47006370  0.80585764  0.55938667     0.18300
C2152       C  0.48801992  0.80249583  0.51992919     0.26300
C2153       C  0.49698462  0.78758507  0.50712953    -0.11400
C2154       C  0.48526770  0.77801417  0.49154333    -0.25500
C2155       C  0.46457423  0.78411710  0.48844371     0.37200
C2156       C  0.45547323  0.79872051  0.50149746    -0.27100
F2157       F  0.49991263  0.81152396  0.53470968    -0.19200
H2158       H  0.51301218  0.78323400  0.50958603     0.16500
F2159       F  0.45275725  0.77499314  0.47365839    -0.22900
H2160       H  0.43916300  0.80217937  0.49956109     0.18300
C2161       C  0.42465048  0.82955172  0.70918724    -0.27000
C2162       C  0.42615486  0.80796927  0.70967100     0.06600
C2163       C  0.41605346  0.79629117  0.69426674     0.26300
C2164       C  0.40529668  0.80615858  0.67831156    -0.11400
C2165       C  0.40460892  0.82770726  0.67751005    -0.25400
C2166       C  0.41412413  0.83935930  0.69315057     0.37100
C2167       C  0.43947437  0.79786042  0.72533699     0.06700
F2168       F  0.41769848  0.77543780  0.69389696    -0.19200
H2169       H  0.39836765  0.79705080  0.66610273     0.16500
F2170       F  0.41383170  0.86027801  0.69247866    -0.22900
H2171       H  0.43211897  0.83883014  0.72094840     0.18300
C2172       C  0.46015493  0.80432983  0.72825132     0.26300
C2173       C  0.47321427  0.79362390  0.74166899    -0.11400
C2174       C  0.46586817  0.77648281  0.75253906    -0.25500
C2175       C  0.44507957  0.77040223  0.75026724     0.37200
C2176       C  0.43198449  0.78103384  0.73673067    -0.27100
F2177       F  0.46809253  0.82028678  0.71729848    -0.19200
H2178       H  0.48929042  0.79831125  0.74313409     0.16500
F2179       F  0.43779103  0.75356674  0.76029866    -0.22900
H2180       H  0.41610446  0.77589988  0.73483541     0.18300
C2181       C  0.30210343  0.79633524  0.58030033    -0.27000
C2182       C  0.31228148  0.78503451  0.56474134     0.06600
C2183       C  0.33348879  0.78873152  0.56119500     0.26300
C2184       C  0.34388930  0.80417446  0.57204920    -0.11400
C2185       C  0.33359687  0.81599049  0.58700568    -0.25400
C2186       C  0.31271949  0.81164388  0.59149300     0.37100
C2187       C  0.30053518  0.77083580  0.55096300     0.06700
F2188       F  0.34414321  0.77759104  0.54697907    -0.19200
H2189       H  0.36005595  0.80709104  0.56858875     0.16500
F2190       F  0.30228520  0.82299422  0.60569031    -0.22900
H2191       H  0.28574571  0.79393873  0.58316467     0.18300
C2192       C  0.28690761  0.75577471  0.55873868     0.26300
C2193       C  0.27564684  0.74306445  0.54519200    -0.11400
C2194       C  0.27772169  0.74529117  0.52374784    -0.25500
C2195       C  0.29170581  0.76001037  0.51606307     0.37200
C2196       C  0.30281470  0.77268775  0.52951575    -0.27100
F2197       F  0.28462994  0.75322626  0.57936460    -0.19200
H2198       H  0.26498669  0.73179014  0.55142214     0.16500
F2199       F  0.29471679  0.76207931  0.49546258    -0.22900
H2200       H  0.31303158  0.78425156  0.52309397     0.18300
C2201       C  0.99414709  0.26423279  0.34866829    -0.27000
C2202       C  0.00232771  0.24691938  0.35891052     0.06600
C2203       C  0.01009474  0.23056969  0.34684796     0.26300
C2204       C  0.00925979  0.23139491  0.32539014    -0.11400
C2205       C  0.00199363  0.24903455  0.31504356    -0.25400
C2206       C  0.99444181  0.26557856  0.32708568     0.37100
C2207       C  0.00296097  0.24590258  0.38196741     0.06700
F2208       F  0.01932319  0.21396411  0.35564253    -0.19200
H2209       H  0.01470599  0.21809096  0.31690962     0.16500
F2210       F  0.98808647  0.28343509  0.31826722    -0.22900
H2211       H  0.98763659  0.27693407  0.35733514     0.18300
C2212       C  0.00781022  0.26330944  0.39413072     0.26300
C2213       C  0.00883027  0.26177507  0.41563967    -0.11400
C2214       C  0.00604569  0.24272349  0.42564631    -0.25500
C2215       C  0.00167234  0.22525000  0.41336656     0.37200
C2216       C  0.99939005  0.22706877  0.39204196    -0.27100
F2217       F  0.01227472  0.28173431  0.38533789    -0.19200
H2218       H  0.01194260  0.27565569  0.42440593     0.16500
F2219       F  0.00042592  0.20611144  0.42165473    -0.22900
H2220       H  0.99508357  0.21343973  0.38338451     0.18300
C2221       C  0.09425485  0.19156294  0.20516640    -0.27000
C2222       C  0.07394618  0.18683954  0.21155605     0.06600
C2223       C  0.06372945  0.16986841  0.20263250     0.26300
C2224       C  0.07342057  0.15826969  0.18730022    -0.11400
C2225       C  0.09349996  0.16324662  0.18044301    -0.25400
C2226       C  0.10406820  0.17978530  0.18985007     0.37100
C2227       C  0.06266619  0.20065691  0.22595594     0.06700
F2228       F  0.04388168  0.16517414  0.20783990    -0.19200
H2229       H  0.06495277  0.14554765  0.18045369     0.16500
F2230       F  0.12339869  0.18520550  0.18359667    -0.22900
H2231       H  0.10234765  0.20463865  0.21177791     0.18300
C2232       C  0.05185357  0.19276785  0.24304284     0.26300
C2233       C  0.03893675  0.20560715  0.25469399    -0.11400
C2234       C  0.03654913  0.22647899  0.24950064    -0.25500
C2235       C  0.04825458  0.23460219  0.23314507     0.37200
C2236       C  0.06120767  0.22178463  0.22153566    -0.27100
F2237       F  0.05344192  0.17256618  0.24820723    -0.19200
H2238       H  0.03013058  0.19904729  0.26727157     0.16500
F2239       F  0.04688912  0.25486775  0.22817474    -0.22900
H2240       H  0.06943515  0.22820301  0.20850850     0.18300
C2241       C  0.00181723  0.26605187  0.84905915    -0.27000
C2242       C  0.99576090  0.24796472  0.85921861     0.06600
C2243       C  0.98942852  0.23085765  0.84747119     0.26300
C2244       C  0.98998154  0.23161541  0.82591267    -0.11400
C2245       C  0.99653735  0.24955239  0.81562195    -0.25400
C2246       C  0.00200571  0.26697857  0.82750184     0.37100
C2247       C  0.99654086  0.24693419  0.88203576     0.06700
F2248       F  0.98346854  0.21315089  0.85685469    -0.19200
H2249       H  0.98581322  0.21791538  0.81727880     0.16500
F2250       F  0.00723579  0.28502446  0.81833284    -0.22900
H2251       H  0.00635681  0.27951921  0.85788980     0.18300
C2252       C  0.01546414  0.24958632  0.89258470     0.26300
C2253       C  0.01612509  0.24877002  0.91415245    -0.11400
C2254       C  0.99787966  0.24570365  0.92550731    -0.25500
C2255       C  0.97896820  0.24298436  0.91498239     0.37200
C2256       C  0.97836330  0.24340948  0.89339990    -0.27100
F2257       F  0.03331861  0.25275880  0.88197940    -0.19200
H2258       H  0.03080954  0.25090275  0.92203800     0.16500
F2259       F  0.96113299  0.23981066  0.92561697    -0.22900
H2260       H  0.96365941  0.24132463  0.88553743     0.18300
C2261       C  0.04179828  0.17285741  0.05635386    -0.27000
C2262       C  0.04664486  0.17097745  0.03531144     0.06600
C2263       C  0.06245201  0.15727718  0.02937064     0.26300
C2264       C  0.07372597  0.14643017  0.04423249    -0.11400
C2265       C  0.06945948  0.14886438  0.06536179    -0.25400
C2266       C  0.05299771  0.16190678  0.07126252     0.37100
C2267       C  0.03631136  0.18447481  0.01989921     0.06700
F2268       F  0.06714636  0.15450300  0.00916706    -0.19200
H2269       H  0.08610552  0.13634867  0.03915254     0.16500
F2270       F  0.04833692  0.16493534  0.09144003    -0.22900
H2271       H  0.02986720  0.18349626  0.06135639     0.18300
C2272       C  0.01461874  0.18708923  0.01975185     0.26300
C2273       C  0.00542224  0.20142609  0.00648657    -0.11400
C2274       C  0.01762419  0.21316756  0.99297368    -0.25500
C2275       C  0.03916485  0.21004493  0.99253638     0.37200
C2276       C  0.04840629  0.19590236  0.00595946    -0.27100
F2277       F  0.00234146  0.17589505  0.03250274    -0.19200
H2278       H  0.98876954  0.20365129  0.00697787     0.16500
F2279       F  0.05137345  0.22153665  0.97999624    -0.22900
H2280       H  0.06514686  0.19446464  0.00600738     0.18300
C2281       C  0.34874102  0.98745456  0.22439297    -0.27000
C2282       C  0.35999444  0.99097593  0.24260805     0.06600
C2283       C  0.34926665  0.99395148  0.26119509     0.26300
C2284       C  0.32757388  0.99322028  0.26154139    -0.11400
C2285       C  0.31623648  0.98989608  0.24331272    -0.25400
C2286       C  0.32700146  0.98710133  0.22466007     0.37100
C2287       C  0.38292103  0.99152337  0.24221775     0.06700
F2288       F  0.35981198  0.99728524  0.27903433    -0.19200
H2289       H  0.31956489  0.99551006  0.27603657     0.16500
F2290       F  0.31651574  0.98361836  0.20681665    -0.22900
H2291       H  0.35683290  0.98513202  0.20994894     0.18300
C2292       C  0.39439262  0.97351539  0.23848126     0.26300
C2293       C  0.41611270  0.97404761  0.23889925    -0.11400
C2294       C  0.42675388  0.99258097  0.24291084    -0.25500
C2295       C  0.41513409  0.01072270  0.24612087     0.37200
C2296       C  0.39342255  0.01009521  0.24594607    -0.27100
F2297       F  0.38455823  0.95531058  0.23507273    -0.19200
H2298       H  0.42461898  0.95984487  0.23657618     0.16500
F2299       F  0.42472414  0.02913480  0.24907006    -0.22900
H2300       H  0.38475107  0.02414389  0.24862366     0.18300
C2301       C  0.20326979  0.90600958  0.30445493    -0.27000
C2302       C  0.21307581  0.92355056  0.31287214     0.06600
C2303       C  0.20828807  0.92938131  0.33322612     0.26300
C2304       C  0.19294975  0.91894885  0.34420941    -0.11400
C2305       C  0.18241038  0.90211109  0.33545790    -0.25400
C2306       C  0.18820059  0.89520744  0.31573473     0.37100
C2307       C  0.22661478  0.93689335  0.29991696     0.06700
F2308       F  0.21817350  0.94546006  0.34242080    -0.19200
H2309       H  0.18905270  0.92425498  0.35954990     0.16500
F2310       F  0.17836289  0.87894590  0.30684318    -0.22900
H2311       H  0.20651750  0.90125034  0.28880670     0.18300
C2312       C  0.24214663  0.92865638  0.28704121     0.26300
C2313       C  0.25384265  0.94165719  0.27427405    -0.11400
C2314       C  0.25019087  0.96302316  0.27407256    -0.25500
C2315       C  0.23512308  0.97126563  0.28737482     0.37200
C2316       C  0.22339767  0.95833498  0.29995632    -0.27100
F2317       F  0.24608876  0.90810981  0.28684396    -0.19200
H2318       H  0.26539661  0.93499468  0.26417776     0.16500
F2319       F  0.23172136  0.99190265  0.28823665    -0.22900
H2320       H  0.21142287  0.96512651  0.30945418     0.18300
C2321       C  0.20188911  0.07892707  0.19417146    -0.27000
C2322       C  0.20890068  0.06016099  0.18571362     0.06600
C2323       C  0.20188903  0.05430773  0.16602097     0.26300
C2324       C  0.18733416  0.06628785  0.15559009    -0.11400
C2325       C  0.17961651  0.08457412  0.16431548    -0.25400
C2326       C  0.18742475  0.09115282  0.18350309     0.37100
C2327       C  0.22229853  0.04593632  0.19779723     0.06700
F2328       F  0.20896648  0.03681951  0.15689330    -0.19200
H2329       H  0.18186960  0.06109328  0.14066714     0.16500
F2330       F  0.18022649  0.10867286  0.19244891    -0.22900
H2331       H  0.20697048  0.08369753  0.20935155     0.18300
C2332       C  0.24065102  0.05270389  0.20747775     0.26300
C2333       C  0.25301721  0.03878607  0.21856651    -0.11400
C2334       C  0.24726829  0.01792295  0.22024611    -0.25500
C2335       C  0.22901961  0.01118829  0.21033025     0.37200
C2336       C  0.21665793  0.02507924  0.19943314    -0.27100
F2337       F  0.24681863  0.07264220  0.20592200    -0.19200
H2338       H  0.26691663  0.04438359  0.22611782     0.16500
F2339       F  0.22325748  0.99106356  0.21083840    -0.22900
H2340       H  0.20254090  0.01949983  0.19227109     0.18300
C2341       C  0.22883501  0.88798800  0.98681121    -0.27000
C2342       C  0.24304586  0.87705304  0.99904441     0.06600
C2343       C  0.25763079  0.88804863  0.01093563     0.26300
C2344       C  0.25800988  0.90962497  0.01046303    -0.11400
C2345       C  0.24362005  0.92052405  0.99844767    -0.25400
C2346       C  0.22894804  0.90956670  0.98667015     0.37100
C2347       C  0.24273398  0.85421017  0.99916842     0.06700
F2348       F  0.27173063  0.87789129  0.02270411    -0.19200
H2349       H  0.26938422  0.91786504  0.01963349     0.16500
F2350       F  0.21493275  0.91976750  0.97483643    -0.22900
H2351       H  0.21750875  0.87977976  0.97755072     0.18300
C2352       C  0.23962761  0.84332118  0.01759106     0.26300
C2353       C  0.23971115  0.82175829  0.01759063    -0.11400
C2354       C  0.24289992  0.81061723  0.99923619    -0.25500
C2355       C  0.24593653  0.82158636  0.98076291     0.37200
C2356       C  0.24571101  0.84317462  0.98077074    -0.27100
F2357       F  0.23605164  0.85355147  0.03551295    -0.19200
H2358       H  0.23696989  0.81374439  0.03193330     0.16500
F2359       F  0.24973745  0.81149805  0.96280711    -0.22900
H2360       H  0.24824505  0.85132244  0.96645993     0.18300
C2361       C  0.18575226  0.01711050  0.01317937    -0.27000
C2362       C  0.18105909  0.01513146  0.03421219     0.06600
C2363       C  0.18955813  0.99844986  0.04527324     0.26300
C2364       C  0.20341943  0.98486241  0.03570448    -0.11400
C2365       C  0.20919027  0.98780422  0.01508719    -0.25400
C2366       C  0.19977527  0.00370558  0.00371750     0.37100
C2367       C  0.16869366  0.03132795  0.04481538     0.06700
F2368       F  0.18563002  0.99606851  0.06567296    -0.19200
H2369       H  0.21057077  0.97277987  0.04472683     0.16500
F2370       F  0.20457396  0.00660846  0.98356421    -0.22900
H2371       H  0.17899941  0.02944008  0.00419052     0.18300
C2372       C  0.17342095  0.05234922  0.04203931     0.26300
C2373       C  0.16295582  0.06746736  0.05333155    -0.11400
C2374       C  0.14786056  0.06199836  0.06789961    -0.25500
C2375       C  0.14263213  0.04103628  0.07020099     0.37200
C2376       C  0.15285812  0.02592321  0.05863212    -0.27100
F2377       F  0.18901711  0.05827550  0.02932166    -0.19200
H2378       H  0.16743339  0.08344070  0.05138764     0.16500
F2379       F  0.12780861  0.03508309  0.08378278    -0.22900
H2380       H  0.14862539  0.00990987  0.06073653     0.18300
C2381       C  0.23243135  0.38538647  0.99186754    -0.27000
C2382       C  0.25108566  0.37451346  0.99488186     0.06600
C2383       C  0.26940351  0.38607735  0.99797010     0.26300
C2384       C  0.26901764  0.40765728  0.99744483    -0.11400
C2385       C  0.25025319  0.41858137  0.99507313    -0.25400
C2386       C  0.23181802  0.40695043  0.99269250     0.37100
C2387       C  0.25128304  0.35133687  0.99492832     0.06700
F2388       F  0.28774614  0.37668998  0.00216873    -0.19200
H2389       H  0.28362382  0.41569213  0.99901600     0.16500
F2390       F  0.21292472  0.41615378  0.99193033    -0.22900
H2391       H  0.21806973  0.37725117  0.98896242     0.18300
C2392       C  0.23479251  0.33982172  0.00340397     0.26300
C2393       C  0.23516167  0.31823808  0.00309394    -0.11400
C2394       C  0.25240592  0.30730174  0.99540938    -0.25500
C2395       C  0.26912980  0.31886635  0.98740754     0.37200
C2396       C  0.26818198  0.34041552  0.98657656    -0.27100
F2397       F  0.21848322  0.34926192  0.01266897    -0.19200
H2398       H  0.22179751  0.31016682  0.00908131     0.16500
F2399       F  0.28689392  0.30961732  0.98106576    -0.22900
H2400       H  0.28093120  0.34850987  0.97942823     0.18300
C2401       C  0.20028707  0.19535439  0.08695609    -0.27000
C2402       C  0.19141085  0.20559702  0.06998637     0.06600
C2403       C  0.17040113  0.20206507  0.06523197     0.26300
C2404       C  0.15903904  0.18743966  0.07615580    -0.11400
C2405       C  0.16819656  0.17630024  0.09230633    -0.25400
C2406       C  0.18871845  0.18084654  0.09815674     0.37100
C2407       C  0.20445601  0.21796039  0.05576917     0.06700
F2408       F  0.16103127  0.21230610  0.04953626    -0.19200
H2409       H  0.14314021  0.18439574  0.07162598     0.16500
F2410       F  0.19802737  0.17021072  0.11360211    -0.22900
H2411       H  0.21645901  0.19774488  0.09081017     0.18300
C2412       C  0.21729649  0.23408193  0.06279462     0.26300
C2413       C  0.22947802  0.24525950  0.04878029    -0.11400
C2414       C  0.22919222  0.24034912  0.02763451    -0.25500
C2415       C  0.21620727  0.22429350  0.02072320     0.37200
C2416       C  0.20411945  0.21323832  0.03464315    -0.27100
F2417       F  0.21778899  0.23922545  0.08307999    -0.19200
H2418       H  0.23932269  0.25755909  0.05445788     0.16500
F2419       F  0.21485564  0.21950297  0.00037796    -0.22900
H2420       H  0.19450804  0.20078933  0.02887842     0.18300
C2421       C  0.89527888  0.01381530  0.24564052    -0.27000
C2422       C  0.88493848  0.99841125  0.25688394     0.06600
C2423       C  0.89701552  0.98319820  0.26670023     0.26300
C2424       C  0.91864988  0.98314728  0.26476067    -0.11400
C2425       C  0.92905883  0.99870498  0.25374284    -0.25400
C2426       C  0.91697993  0.01432870  0.24449574     0.37100
C2427       C  0.86171485  0.99815933  0.25802447     0.06700
F2428       F  0.88804848  0.96854166  0.27862337    -0.19200
H2429       H  0.92719967  0.97075198  0.27193605     0.16500
F2430       F  0.92598297  0.03054607  0.23483118    -0.22900
H2431       H  0.88658374  0.02557408  0.23759962     0.18300
C2432       C  0.85019234  0.01653397  0.26009778     0.26300
C2433       C  0.82846373  0.01609773  0.26002650    -0.11400
C2434       C  0.81754706  0.99736759  0.25851412    -0.25500
C2435       C  0.82907685  0.97891384  0.25745179     0.37200
C2436       C  0.85078150  0.97941407  0.25671892    -0.27100
F2437       F  0.85983940  0.03499371  0.26244895    -0.19200
H2438       H  0.82017928  0.03060431  0.26082301     0.16500
F2439       F  0.81948926  0.96027940  0.25743919    -0.22900
H2440       H  0.85900448  0.96497970  0.25485265     0.18300
C2441       C  0.03347447  0.93861874  0.34218467    -0.27000
C2442       C  0.04080674  0.95201219  0.32685733     0.06600
C2443       C  0.06240813  0.95456698  0.32460888     0.26300
C2444       C  0.07621914  0.94312666  0.33671603    -0.11400
C2445       C  0.06885006  0.92873938  0.35112736    -0.25400
C2446       C  0.04725272  0.92699825  0.35410445     0.37100
C2447       C  0.02591668  0.96229468  0.31261015     0.06700
F2448       F  0.07024284  0.96714748  0.30986187    -0.19200
H2449       H  0.09272389  0.94479122  0.33402536     0.16500
F2450       F  0.03934629  0.91375934  0.36822596    -0.22900
H2451       H  0.01695347  0.93680137  0.34465515     0.18300
C2452       C  0.00970483  0.95100774  0.30324269     0.26300
C2453       C  0.99630634  0.96049367  0.28918115    -0.11400
C2454       C  0.99903971  0.98123471  0.28384738    -0.25500
C2455       C  0.01502754  0.99262486  0.29329179     0.37200
C2456       C  0.02818878  0.98327372  0.30769219    -0.27100
F2457       F  0.00741394  0.93053488  0.30685794    -0.19200
H2458       H  0.98429868  0.95141369  0.28178689     0.16500
F2459       F  0.01793403  0.01277855  0.28852047    -0.22900
H2460       H  0.04026764  0.99240411  0.31488638     0.18300
C2461       C  0.00462439  0.04385150  0.19419288    -0.27000
C2462       C  0.02082123  0.03262384  0.18492436     0.06600
C2463       C  0.02332606  0.01170034  0.19011773     0.26300
C2464       C  0.01073448  0.00269296  0.20513115    -0.11400
C2465       C  0.99517176  0.01420761  0.21497162    -0.25400
C2466       C  0.99177709  0.03470204  0.20892040     0.37100
C2467       C  0.03604507  0.04330647  0.17141277     0.06700
F2468       F  0.03818408  0.00002468  0.18096698    -0.19200
H2469       H  0.01344027  0.98682467  0.20945593     0.16500
F2470       F  0.97701341  0.04632497  0.21828413    -0.22900
H2471       H  0.00252908  0.06003244  0.19083412     0.18300
C2472       C  0.02959108  0.05776172  0.15657217     0.26300
C2473       C  0.04424201  0.06939258  0.14576602    -0.11400
C2474       C  0.06560763  0.06663102  0.14923893    -0.25500
C2475       C  0.07208206  0.05147835  0.16334245     0.37200
C2476       C  0.05743803  0.04016316  0.17442886    -0.27100
F2477       F  0.00912493  0.06078546  0.15259090    -0.19200
H2478       H  0.03883476  0.08078814  0.13483984     0.16500
F2479       F  0.09253395  0.04836281  0.16736222    -0.22900
H2480       H  0.06291403  0.02951125  0.18603630     0.18300
C2481       C  0.61049629  0.97995586  0.76253434    -0.27000
C2482       C  0.62029147  0.98933983  0.74570493     0.06600
C2483       C  0.60816515  0.99851741  0.73024229     0.26300
C2484       C  0.58649136  0.99824847  0.73162733    -0.11400
C2485       C  0.57664186  0.98915090  0.74862528    -0.25400
C2486       C  0.58882597  0.97997725  0.76410463     0.37100
C2487       C  0.64316660  0.98945485  0.74433203     0.06700
F2488       F  0.61731173  0.00745021  0.71368771    -0.19200
H2489       H  0.57735599  0.00527848  0.71950819     0.16500
F2490       F  0.57974898  0.97057536  0.78043351    -0.22900
H2491       H  0.61967727  0.97272402  0.77450257     0.18300
C2492       C  0.65434255  0.00785684  0.74694685     0.26300
C2493       C  0.67602714  0.00779611  0.74580828    -0.11400
C2494       C  0.68688892  0.98938483  0.74197450    -0.25500
C2495       C  0.67558425  0.97101009  0.73907249     0.37200
C2496       C  0.65390532  0.97107124  0.74040611    -0.27100
F2497       F  0.64427826  0.02578279  0.75102346    -0.19200
H2498       H  0.68436519  0.02208223  0.74824288     0.16500
F2499       F  0.68544420  0.95310675  0.73442949    -0.22900
H2500       H  0.64544766  0.95682510  0.73814779     0.18300
C2501       C  0.48064260  0.94439513  0.70891259    -0.27000
C2502       C  0.48341818  0.94929662  0.68807804     0.06600
C2503       C  0.49863386  0.96374134  0.68249820     0.26300
C2504       C  0.51098857  0.97304502  0.69771289    -0.11400
C2505       C  0.50805544  0.96823815  0.71863142    -0.25400
C2506       C  0.49279592  0.95372612  0.72406846     0.37100
C2507       C  0.47034475  0.93888017  0.67253240     0.06700
F2508       F  0.50172809  0.96855628  0.66239340    -0.19200
H2509       H  0.52259747  0.98422357  0.69322398     0.16500
F2510       F  0.48985898  0.94827265  0.74404052    -0.22900
H2511       H  0.46895360  0.93330135  0.71343979     0.18300
C2512       C  0.47037531  0.91729408  0.67124930     0.26300
C2513       C  0.45601243  0.90714805  0.65874607    -0.11400
C2514       C  0.44106797  0.91830235  0.64758594    -0.25500
C2515       C  0.44158618  0.94000366  0.64819652     0.37200
C2516       C  0.45627619  0.95019354  0.66050338    -0.27100
F2517       F  0.48386353  0.90600370  0.68269516    -0.19200
H2518       H  0.45592285  0.89044836  0.65867077     0.16500
F2519       F  0.42764625  0.95132050  0.63733570    -0.22900
H2520       H  0.45604273  0.96686826  0.66141404     0.18300
C2521       C  0.49671000  0.26548031  0.60606766    -0.27000
C2522       C  0.49383355  0.24594915  0.61482377     0.06600
C2523       C  0.49117061  0.22879719  0.60189165     0.26300
C2524       C  0.49157734  0.23118658  0.58046049    -0.11400
C2525       C  0.49479731  0.25070112  0.57151874    -0.25400
C2526       C  0.49723871  0.26790428  0.58461738     0.37100
C2527       C  0.49433011  0.24356840  0.63746714     0.06700
F2528       F  0.48840853  0.20973056  0.61000290    -0.19200
H2529       H  0.48945462  0.21770073  0.57080505     0.16500
F2530       F  0.50104773  0.28689806  0.57677748    -0.22900
H2531       H  0.49894538  0.27881537  0.61590874     0.18300
C2532       C  0.51311716  0.23945532  0.64764406     0.26300
C2533       C  0.51381867  0.23864523  0.66919346    -0.11400
C2534       C  0.49574750  0.24168764  0.68094161    -0.25500
C2535       C  0.47680015  0.24519404  0.67062876     0.37200
C2536       C  0.47617831  0.24623256  0.64905867    -0.27100
F2537       F  0.53081908  0.23651328  0.63671474    -0.19200
H2538       H  0.52851299  0.23563103  0.67674419     0.16500
F2539       F  0.45905271  0.24841089  0.68140441    -0.22900
H2540       H  0.46158793  0.24942645  0.64138105     0.18300
C2541       C  0.52318856  0.23996985  0.14385194    -0.27000
C2542       C  0.50437007  0.24361199  0.13346079     0.06600
C2543       C  0.48648424  0.24773337  0.14524560     0.26300
C2544       C  0.48751927  0.24802493  0.16678495    -0.11400
C2545       C  0.50646233  0.24485192  0.17715583    -0.25400
C2546       C  0.52438712  0.24101194  0.16533378     0.37100
C2547       C  0.50365068  0.24310326  0.11046656     0.06700
F2548       F  0.46806774  0.25208342  0.13603316    -0.19200
H2549       H  0.47339448  0.25083578  0.17534522     0.16500
F2550       F  0.54329597  0.23898266  0.17436699    -0.22900
H2551       H  0.53715034  0.23636490  0.13533264     0.18300
C2552       C  0.51969113  0.25187465  0.09864639     0.26300
C2553       C  0.51937193  0.25044430  0.07715304    -0.11400
C2554       C  0.50268209  0.24102634  0.06671445    -0.25500
C2555       C  0.48624477  0.23291845  0.07855432     0.37200
C2556       C  0.48701658  0.23357407  0.10010225    -0.27100
F2557       F  0.53555672  0.26224482  0.10778297    -0.19200
H2558       H  0.53240038  0.25670751  0.06871319     0.16500
F2559       F  0.46909232  0.22481738  0.06944068    -0.22900
H2560       H  0.47452220  0.22647469  0.10867782     0.18300
C2561       C  0.31231071  0.99766937  0.97200991    -0.27000
C2562       C  0.30593864  0.01375518  0.95900074     0.06600
C2563       C  0.28472890  0.01640178  0.95486788     0.26300
C2564       C  0.27009661  0.00351975  0.96400103    -0.11400
C2565       C  0.27624371  0.98782432  0.97761140    -0.25400
C2566       C  0.29756733  0.98481918  0.98139054     0.37100
C2567       C  0.32122004  0.02775756  0.94942682     0.06700
F2568       F  0.27817638  0.03141709  0.94185370    -0.19200
H2569       H  0.25382282  0.00594166  0.96056904     0.16500
F2570       F  0.30408094  0.97013077  0.99477672    -0.22900
H2571       H  0.32864169  0.99540858  0.97525519     0.18300
C2572       C  0.32098468  0.04894841  0.95392373     0.26300
C2573       C  0.33353996  0.06254931  0.94281866    -0.11400
C2574       C  0.34634577  0.05530007  0.92681781    -0.25500
C2575       C  0.34716386  0.03387696  0.92298520     0.37200
C2576       C  0.33477489  0.02028356  0.93430592    -0.27100
F2577       F  0.30815359  0.05653566  0.96868187    -0.19200
H2578       H  0.33254563  0.07886395  0.94618401     0.16500
F2579       F  0.35947967  0.02603359  0.90794066    -0.22900
H2580       H  0.33508683  0.00399856  0.93065673     0.18300
C2581       C  0.30217069  0.18836301  0.91059425    -0.27000
C2582       C  0.31232113  0.20045353  0.92560817     0.06600
C2583       C  0.33383863  0.19794506  0.92844519     0.26300
C2584       C  0.34456030  0.18259868  0.91774168    -0.11400
C2585       C  0.33422902  0.16980972  0.90358908    -0.25400
C2586       C  0.31308439  0.17323456  0.89950828     0.37100
C2587       C  0.30030816  0.21406973  0.93972189     0.06700
F2588       F  0.34442698  0.21002901  0.94197743    -0.19200
H2589       H  0.36092862  0.18037713  0.92083535     0.16500
F2590       F  0.30270259  0.16102813  0.88594307    -0.22900
H2591       H  0.28562081  0.18990779  0.90819463     0.18300
C2592       C  0.28568769  0.22841762  0.93234752     0.26300
C2593       C  0.27441633  0.24073171  0.94620102    -0.11400
C2594       C  0.27733514  0.23872350  0.96758600    -0.25500
C2595       C  0.29201823  0.22445146  0.97488638     0.37200
C2596       C  0.30328785  0.21228865  0.96110925    -0.27100
F2597       F  0.28246859  0.23069574  0.91180266    -0.19200
H2598       H  0.26312822  0.25156144  0.94026066     0.16500
F2599       F  0.29562838  0.22238300  0.99540464    -0.22900
H2600       H  0.31421487  0.20118962  0.96722172     0.18300
C2601       C  0.45843192  0.16318527  0.93887772    -0.27000
C2602       C  0.45498702  0.16045758  0.96008286     0.06600
C2603       C  0.44014420  0.14591263  0.96644343     0.26300
C2604       C  0.42850168  0.13496023  0.95184466    -0.11400
C2605       C  0.43149896  0.13813946  0.93061743    -0.25400
C2606       C  0.44693709  0.15211497  0.92426643     0.37100
C2607       C  0.46583736  0.17393113  0.97523100     0.06700
F2608       F  0.43676530  0.14239631  0.98677561    -0.19200
H2609       H  0.41684521  0.12420620  0.95719058     0.16500
F2610       F  0.45016184  0.15602474  0.90397915    -0.22900
H2611       H  0.46948524  0.17455843  0.93355740     0.18300
C2612       C  0.48729431  0.17770904  0.97365251     0.26300
C2613       C  0.49677761  0.19253200  0.98621996    -0.11400
C2614       C  0.48512915  0.20361699  0.00076789    -0.25500
C2615       C  0.46394255  0.19911597  0.00313976     0.37200
C2616       C  0.45438198  0.18448440  0.99038602    -0.27100
F2617       F  0.49903138  0.16730776  0.95973251    -0.19200
H2618       H  0.51314785  0.19572169  0.98429751     0.16500
F2619       F  0.45221148  0.20984209  0.01681988    -0.22900
H2620       H  0.43781528  0.18211797  0.99171579     0.18300
C2621       C  0.30015628  0.07772141  0.79677370    -0.27000
C2622       C  0.28855586  0.06162570  0.80558867     0.06600
C2623       C  0.29215251  0.05634190  0.82629536     0.26300
C2624       C  0.30793511  0.06598153  0.83748025    -0.11400
C2625       C  0.32012236  0.08142022  0.82845458    -0.25400
C2626       C  0.31577851  0.08768520  0.80817905     0.37100
C2627       C  0.27449317  0.04877611  0.79273766     0.06700
F2628       F  0.28065255  0.04150315  0.83559020    -0.19200
H2629       H  0.31081988  0.06121622  0.85320089     0.16500
F2630       F  0.32746691  0.10244211  0.79901033    -0.22900
H2631       H  0.29778553  0.08189904  0.78081245     0.18300
C2632       C  0.25878276  0.05741868  0.78037115     0.26300
C2633       C  0.24614420  0.04466332  0.76811764    -0.11400
C2634       C  0.24917538  0.02319361  0.76788206    -0.25500
C2635       C  0.26470350  0.01464951  0.78052461     0.37200
C2636       C  0.27721667  0.02731851  0.79267297    -0.27100
F2637       F  0.25555750  0.07808897  0.78027953    -0.19200
H2638       H  0.23432162  0.05156614  0.75847008     0.16500
F2639       F  0.26775250  0.99395501  0.78124517    -0.22900
H2640       H  0.28931967  0.02032085  0.80190397     0.18300
C2641       C  0.47183402  0.04931963  0.84100175    -0.27000
C2642       C  0.46612204  0.03423075  0.82651711     0.06600
C2643       C  0.44490419  0.02970556  0.82377544     0.26300
C2644       C  0.42977370  0.04079973  0.83460919    -0.11400
C2645       C  0.43544318  0.05672051  0.84825923    -0.25400
C2646       C  0.45673516  0.06047865  0.85175979     0.37100
C2647       C  0.48218349  0.02420773  0.81345134     0.06700
F2648       F  0.43871029  0.01543389  0.80970424    -0.19200
H2649       H  0.41356051  0.03757908  0.83153435     0.16500
F2650       F  0.46303808  0.07517439  0.86533047    -0.22900
H2651       H  0.48807088  0.05276230  0.84369589     0.18300
C2652       C  0.49666634  0.03618129  0.80245557     0.26300
C2653       C  0.51049188  0.02682121  0.78869166    -0.11400
C2654       C  0.50995050  0.00545490  0.78549100    -0.25500
C2655       C  0.49609181  0.99338023  0.79703563     0.37200
C2656       C  0.48241428  0.00268853  0.81095763    -0.27100
F2657       F  0.49654361  0.05705147  0.80396999    -0.19200
H2658       H  0.52080360  0.03636481  0.77966233     0.16500
F2659       F  0.49540173  0.97262661  0.79436145    -0.22900
H2660       H  0.47165604  0.99313781  0.81944577     0.18300
C2661       C  0.41472518  0.18692732  0.79904814    -0.27000
C2662       C  0.43209113  0.17847023  0.78897676     0.06600
C2663       C  0.43780302  0.15798621  0.79323552     0.26300
C2664       C  0.42707617  0.14664200  0.80800151    -0.11400
C2665       C  0.41014379  0.15525288  0.81849043    -0.25400
C2666       C  0.40369445  0.17534828  0.81360622     0.37100
C2667       C  0.44517286  0.19130505  0.77523012     0.06700
F2668       F  0.45389494  0.14894472  0.78320311    -0.19200
H2669       H  0.43208307  0.13108284  0.81134737     0.16500
F2670       F  0.38755316  0.18417419  0.82373608    -0.22900
H2671       H  0.41018379  0.20271695  0.79622018     0.18300
C2672       C  0.43654064  0.20335846  0.75936398     0.26300
C2673       C  0.44942115  0.21522818  0.74664572    -0.11400
C2674       C  0.47104303  0.21534055  0.74964367    -0.25500
C2675       C  0.47960088  0.20308696  0.76538683     0.37200
C2676       C  0.46678084  0.19142566  0.77809826    -0.27100
F2677       F  0.41574537  0.20343013  0.75596386    -0.19200
H2678       H  0.44249436  0.22459569  0.73469170     0.16500
F2679       F  0.50045360  0.20214647  0.76836390    -0.22900
H2680       H  0.47380193  0.18251232  0.79034513     0.18300
C2681       C  0.67538040  0.28049913  0.91836898    -0.27000
C2682       C  0.69065735  0.28700131  0.93239564     0.06600
C2683       C  0.69521556  0.30815112  0.93402725     0.26300
C2684       C  0.68488883  0.32243411  0.92164064    -0.11400
C2685       C  0.66959980  0.31602114  0.90753309    -0.25400
C2686       C  0.66488134  0.29481832  0.90605980     0.37100
C2687       C  0.70246846  0.27177040  0.94473238     0.06700
F2688       F  0.70932649  0.31507383  0.94800133    -0.19200
H2689       H  0.68853231  0.33863506  0.92350288     0.16500
F2690       F  0.65024597  0.28784336  0.89266311    -0.22900
H2691       H  0.67177835  0.26426581  0.91674616     0.18300
C2692       C  0.69241764  0.25701042  0.95709384     0.26300
C2693       C  0.70409734  0.24364293  0.96952540    -0.11400
C2694       C  0.72586135  0.24495775  0.96983666    -0.25500
C2695       C  0.73582515  0.25919087  0.95689928     0.37200
C2696       C  0.72423110  0.27238142  0.94446535    -0.27100
F2697       F  0.67137628  0.25620353  0.95792100    -0.19200
H2698       H  0.69617967  0.23289662  0.97951609     0.16500
F2699       F  0.75685425  0.26051726  0.95650513    -0.22900
H2700       H  0.73227334  0.28330800  0.93476408     0.18300
C2701       C  0.53014258  0.30667062  0.98943084    -0.27000
C2702       C  0.54326856  0.30048223  0.97326081     0.06600
C2703       C  0.54555933  0.27925081  0.96922323     0.26300
C2704       C  0.53551190  0.26468329  0.98140389    -0.11400
C2705       C  0.52251441  0.27075567  0.99766772    -0.25400
C2706       C  0.51975075  0.29198584  0.00147584     0.37100
C2707       C  0.55498464  0.31582244  0.96076870     0.06700
F2708       F  0.55729718  0.27248137  0.95322104    -0.19200
H2709       H  0.53803184  0.24849873  0.97811909     0.16500
F2710       F  0.50667792  0.29857655  0.01648425    -0.22900
H2711       H  0.52810318  0.32287129  0.99290339     0.18300
C2712       C  0.54537683  0.33333728  0.95208416     0.26300
C2713       C  0.55633913  0.34596660  0.93825548    -0.11400
C2714       C  0.57682309  0.34106390  0.93274224    -0.25500
C2715       C  0.58667938  0.32430927  0.94232843     0.37200
C2716       C  0.57598769  0.31209925  0.95638385    -0.27100
F2717       F  0.52510596  0.33752070  0.95590760    -0.19200
H2718       H  0.54849616  0.35878047  0.93099190     0.16500
F2719       F  0.60663420  0.31941610  0.93769180    -0.22900
H2720       H  0.58400670  0.29923388  0.96337333     0.18300
C2721       C  0.68666738  0.42176966  0.79283166    -0.27000
C2722       C  0.70783765  0.42189231  0.79807244     0.06600
C2723       C  0.71450420  0.40972356  0.81477618     0.26300
C2724       C  0.70010279  0.39866840  0.82656794    -0.11400
C2725       C  0.67876568  0.39929110  0.82187390    -0.25400
C2726       C  0.67231206  0.41052537  0.80439603     0.37100
C2727       C  0.72238010  0.43597880  0.78708476     0.06700
F2728       F  0.73492633  0.40868872  0.81987434    -0.19200
H2729       H  0.70564917  0.39000420  0.83971306     0.16500
F2730       F  0.65198425  0.41156696  0.79894069    -0.22900
H2731       H  0.68099807  0.43115640  0.78025342     0.18300
C2732       C  0.72177289  0.43807350  0.76545304     0.26300
C2733       C  0.73396729  0.45297746  0.75563192    -0.11400
C2734       C  0.74724197  0.46575309  0.76710976    -0.25500
C2735       C  0.74837970  0.46333509  0.78856585     0.37200
C2736       C  0.73596517  0.44868790  0.79844804    -0.27100
F2737       F  0.70940423  0.42573307  0.75378404    -0.19200
H2738       H  0.73299350  0.45464371  0.73906498     0.16500
F2739       F  0.76083156  0.47578022  0.80004270    -0.22900
H2740       H  0.73644836  0.44780788  0.81508886     0.18300
C2741       C  0.53115645  0.43437833  0.84293736    -0.27000
C2742       C  0.53709935  0.44702653  0.82639165     0.06600
C2743       C  0.55818367  0.44822249  0.82099435     0.26300
C2744       C  0.57289346  0.43654119  0.83149625    -0.11400
C2745       C  0.56700086  0.42353137  0.84768812    -0.25400
C2746       C  0.54603773  0.42276447  0.85364941     0.37100
C2747       C  0.52150587  0.45815986  0.81384254     0.06700
F2748       F  0.56445781  0.45985338  0.80479312    -0.19200
H2749       H  0.58894100  0.43726560  0.82660214     0.16500
F2750       F  0.53979979  0.40992100  0.86891108    -0.22900
H2751       H  0.51498593  0.43324789  0.84729405     0.18300
C2752       C  0.50525977  0.44749367  0.80394283     0.26300
C2753       C  0.49292434  0.45751553  0.78926397    -0.11400
C2754       C  0.49673575  0.47820239  0.78417367    -0.25500
C2755       C  0.51216604  0.48914368  0.79497871     0.37200
C2756       C  0.52434758  0.47919994  0.80971859    -0.27100
F2757       F  0.50226147  0.42707789  0.80736963    -0.19200
H2758       H  0.48110341  0.44884529  0.78110453     0.16500
F2759       F  0.51575036  0.50935774  0.79095995    -0.22900
H2760       H  0.53657703  0.48774669  0.81740027     0.18300
C2761       C  0.56659331  0.29448121  0.81011517    -0.27000
C2762       C  0.56918203  0.29836789  0.78897016     0.06600
C2763       C  0.58275235  0.31417661  0.78286797     0.26300
C2764       C  0.59312664  0.32608839  0.79766714    -0.11400
C2765       C  0.59033328  0.32240486  0.81884496    -0.25400
C2766       C  0.57707568  0.30626844  0.82492832     0.37100
C2767       C  0.55696415  0.28644363  0.77356006     0.06700
F2768       F  0.58610616  0.31801555  0.76259229    -0.19200
H2769       H  0.60333802  0.33828958  0.79251798     0.16500
F2770       F  0.57350107  0.30239586  0.84516476    -0.22900
H2771       H  0.55594791  0.28262794  0.81521528     0.18300
C2772       C  0.55579525  0.26483266  0.77469741     0.26300
C2773       C  0.54248047  0.25392293  0.76160466    -0.11400
C2774       C  0.53014348  0.26428045  0.74705818    -0.25500
C2775       C  0.53199844  0.28577006  0.74519785     0.37200
C2776       C  0.54527400  0.29674084  0.75839921    -0.27100
F2777       F  0.56732064  0.25426831  0.78866489    -0.19200
H2778       H  0.54137748  0.23735345  0.76316322     0.16500
F2779       F  0.52000918  0.29627605  0.73158228    -0.22900
H2780       H  0.54572256  0.31337582  0.75738019     0.18300
C2781       C  0.10266075  0.51243449  0.25824766    -0.27000
C2782       C  0.11277312  0.49532339  0.24964037     0.06600
C2783       C  0.10098461  0.47829598  0.24317657     0.26300
C2784       C  0.07939302  0.47841670  0.24532971    -0.11400
C2785       C  0.06906377  0.49566830  0.25363370    -0.25400
C2786       C  0.08100161  0.51276781  0.26004779     0.37100
C2787       C  0.13562970  0.49529759  0.24752166     0.06700
F2788       F  0.11040470  0.46141812  0.23506842    -0.19200
H2789       H  0.07074700  0.46491127  0.24054882     0.16500
F2790       F  0.07177689  0.53012640  0.26730605    -0.22900
H2791       H  0.11155773  0.52573766  0.26316697     0.18300
C2792       C  0.14496926  0.49481282  0.22796833     0.26300
C2793       C  0.16662646  0.49498847  0.22618316    -0.11400
C2794       C  0.17927022  0.49527666  0.24386006    -0.25500
C2795       C  0.16987066  0.49561693  0.26341566     0.37200
C2796       C  0.14822498  0.49582326  0.26517738    -0.27100
F2797       F  0.13312734  0.49451455  0.21063446    -0.19200
H2798       H  0.17356309  0.49469969  0.21099392     0.16500
F2799       F  0.18162661  0.49623962  0.28079496    -0.22900
H2800       H  0.14124511  0.49623419  0.28034625     0.18300
C2801       C  0.73913353  0.60308896  0.00888733    -0.27000
C2802       C  0.74734899  0.61286908  0.99140973     0.06600
C2803       C  0.75613116  0.60073361  0.97565024     0.26300
C2804       C  0.75625668  0.57920834  0.97727038    -0.11400
C2805       C  0.74793936  0.56955440  0.99471598    -0.25400
C2806       C  0.73947971  0.58161791  0.01058059     0.37100
C2807       C  0.74654856  0.63566697  0.98976581     0.06700
F2808       F  0.76408765  0.60965215  0.95849121    -0.19200
H2809       H  0.76284245  0.57004000  0.96493111     0.16500
F2810       F  0.73126810  0.57257101  0.02754937    -0.22900
H2811       H  0.73251637  0.61213157  0.02129648     0.18300
C2812       C  0.72773711  0.64630285  0.99254273     0.26300
C2813       C  0.72716597  0.66782009  0.99147135    -0.11400
C2814       C  0.74532829  0.67921088  0.98770463    -0.25500
C2815       C  0.76418545  0.66851509  0.98494777     0.37200
C2816       C  0.76470312  0.64696919  0.98588329    -0.27100
F2817       F  0.70981075  0.63584855  0.99591703    -0.19200
H2818       H  0.71242150  0.67558520  0.99338039     0.16500
F2819       F  0.78227023  0.67885863  0.98208732    -0.22900
H2820       H  0.77940655  0.63910290  0.98403569     0.18300
C2821       C  0.68345392  0.49180685  0.96349701    -0.27000
C2822       C  0.69119543  0.47530288  0.95171409     0.06600
C2823       C  0.71278724  0.47190143  0.95123273     0.26300
C2824       C  0.72622653  0.48456237  0.96248003    -0.11400
C2825       C  0.71852195  0.50097028  0.97432746    -0.25400
C2826       C  0.69699142  0.50461141  0.97466279     0.37100
C2827       C  0.67695993  0.46147172  0.94003135     0.06700
F2828       F  0.72089908  0.45593221  0.94034551    -0.19200
H2829       H  0.74274209  0.48151388  0.96199159     0.16500
F2830       F  0.68901428  0.52010674  0.98629543    -0.22900
H2831       H  0.66693900  0.49479568  0.96400970     0.18300
C2832       C  0.66001721  0.45165446  0.94962745     0.26300
C2833       C  0.64833370  0.43678166  0.93889556    -0.11400
C2834       C  0.65359278  0.43135826  0.91860350    -0.25500
C2835       C  0.66980598  0.44197886  0.90874024     0.37200
C2836       C  0.68121712  0.45694463  0.91930739    -0.27100
F2837       F  0.65557311  0.45547935  0.96971450    -0.19200
H2838       H  0.63595733  0.42875308  0.94675929     0.16500
F2839       F  0.67484794  0.43763328  0.88888303    -0.22900
H2840       H  0.69380819  0.46464223  0.91143649     0.18300
C2841       C  0.94845226  0.29241586  0.00992478    -0.27000
C2842       C  0.96004030  0.30902454  0.01788784     0.06600
C2843       C  0.98120634  0.31065777  0.01270554     0.26300
C2844       C  0.99052790  0.29576538  0.00006589    -0.11400
C2845       C  0.97888147  0.27915259  0.99237570    -0.25400
C2846       C  0.95776603  0.27762360  0.99726701     0.37100
C2847       C  0.95001277  0.32392443  0.03220860     0.06700
F2848       F  0.99282167  0.32664869  0.01979151    -0.19200
H2849       H  0.00690202  0.29700622  0.99650048     0.16500
F2850       F  0.94635114  0.26143581  0.99030891    -0.22900
H2851       H  0.93226150  0.29058124  0.01398048     0.18300
C2852       C  0.93067778  0.33273538  0.02736634     0.26300
C2853       C  0.92028385  0.34499474  0.04178774    -0.11400
C2854       C  0.92881858  0.34869665  0.06144982    -0.25500
C2855       C  0.94863288  0.34057033  0.06595797     0.37200
C2856       C  0.95905241  0.32834330  0.05145227    -0.27100
F2857       F  0.92165929  0.32924324  0.00874879    -0.19200
H2858       H  0.90513157  0.35099070  0.03773977     0.16500
F2859       F  0.95773478  0.34384779  0.08457050    -0.22900
H2860       H  0.97386971  0.32162685  0.05560319     0.18300
C2861       C  0.97027499  0.29704072  0.21666005    -0.27000
C2862       C  0.94865124  0.29592119  0.21924470     0.06600
C2863       C  0.94067092  0.28351571  0.23516493     0.26300
C2864       C  0.95416032  0.27256124  0.24816217    -0.11400
C2865       C  0.97578023  0.27375632  0.24546664    -0.25400
C2866       C  0.98368250  0.28637718  0.22971463     0.37100
C2867       C  0.93489802  0.30792274  0.20522955     0.06700
F2868       F  0.91990403  0.28222217  0.23838018    -0.19200
H2869       H  0.94771186  0.26289427  0.26011461     0.16500
F2870       F  0.00446587  0.28863929  0.22705825    -0.22900
H2871       H  0.97688856  0.30615903  0.20436935     0.18300
C2872       C  0.93989061  0.32843766  0.20027872     0.26300
C2873       C  0.92858070  0.33899047  0.18533750    -0.11400
C2874       C  0.91172454  0.32961699  0.17526234    -0.25500
C2875       C  0.90583327  0.30957282  0.18096720     0.37200
C2876       C  0.91750377  0.29873343  0.19570198    -0.27100
F2877       F  0.95584166  0.33833447  0.20979945    -0.19200
H2878       H  0.93312969  0.35457600  0.18150901     0.16500
F2879       F  0.88959777  0.30008570  0.17153150    -0.22900
H2880       H  0.91340999  0.28294027  0.19907823     0.18300
C2881       C  0.98755882  0.44792806  0.20435447    -0.27000
C2882       C  0.97518174  0.46033440  0.19150213     0.06600
C2883       C  0.97555525  0.48187322  0.19430250     0.26300
C2884       C  0.98780194  0.49066702  0.20986043    -0.11400
C2885       C  0.00007735  0.47818486  0.22260609    -0.25400
C2886       C  0.00001153  0.45676163  0.21967516     0.37100
C2887       C  0.96118167  0.45051346  0.17609615     0.06700
F2888       F  0.96425642  0.49442439  0.18189683    -0.19200
H2889       H  0.98777037  0.50722326  0.21195936     0.16500
F2890       F  0.01144283  0.44435619  0.23211758    -0.22900
H2891       H  0.98719597  0.43131353  0.20288101     0.18300
C2892       C  0.96827569  0.43444630  0.16333056     0.26300
C2893       C  0.95436793  0.42356522  0.15081143    -0.11400
C2894       C  0.93308337  0.42845160  0.15067254    -0.25500
C2895       C  0.92623437  0.44539865  0.16250539     0.37200
C2896       C  0.94015524  0.45617682  0.17513055    -0.27100
F2897       F  0.98861724  0.42898256  0.16323398    -0.19200
H2898       H  0.96022574  0.41079509  0.14175373     0.16500
F2899       F  0.90594013  0.45101896  0.16273421    -0.22900
H2900       H  0.93424960  0.46838776  0.18489793     0.18300
C2901       C  0.81103296  0.25630660  0.03936928    -0.27000
C2902       C  0.80150634  0.27129363  0.05182379     0.06600
C2903       C  0.77978958  0.27284260  0.05200403     0.26300
C2904       C  0.76779526  0.25989551  0.03955278    -0.11400
C2905       C  0.77723798  0.24508472  0.02683496    -0.25400
C2906       C  0.79897910  0.24311359  0.02706620     0.37100
C2907       C  0.81410963  0.28662657  0.06312792     0.06700
F2908       F  0.77026121  0.28759415  0.06345019    -0.19200
H2909       H  0.75108487  0.26170646  0.03948729     0.16500
F2910       F  0.80855903  0.22923470  0.01461471    -0.22900
H2911       H  0.82779168  0.25514270  0.03889045     0.18300
C2912       C  0.81405005  0.28748163  0.08475541     0.26300
C2913       C  0.82453194  0.30338140  0.09512226    -0.11400
C2914       C  0.83499674  0.31883463  0.08404051    -0.25500
C2915       C  0.83522495  0.31760861  0.06227080     0.37200
C2916       C  0.82495978  0.30160596  0.05203860    -0.27100
F2917       F  0.80377159  0.27297953  0.09579411    -0.19200
H2918       H  0.82421410  0.30373679  0.11179025     0.16500
F2919       F  0.84529820  0.33185143  0.05070518    -0.22900
H2920       H  0.82500536  0.30120055  0.03535330     0.18300
C2921       C  0.78357022  0.48018476  0.05249802    -0.27000
C2922       C  0.80482281  0.48067003  0.04782419     0.06600
C2923       C  0.81196565  0.49392367  0.03227745     0.26300
C2924       C  0.79789448  0.50603730  0.02116423    -0.11400
C2925       C  0.77652414  0.50477004  0.02516241    -0.25400
C2926       C  0.76947424  0.49200587  0.04115926     0.37100
C2927       C  0.81907949  0.46607660  0.05808801     0.06700
F2928       F  0.83248092  0.49483705  0.02763692    -0.19200
H2929       H  0.80356658  0.51577887  0.00886542     0.16500
F2930       F  0.74891670  0.49071872  0.04553498    -0.22900
H2931       H  0.77781884  0.47000968  0.06440388     0.18300
C2932       C  0.82197984  0.46657620  0.07952059     0.26300
C2933       C  0.83424746  0.45162848  0.08914363    -0.11400
C2934       C  0.84354611  0.43567962  0.07762268    -0.25500
C2935       C  0.84078837  0.43543251  0.05606444     0.37200
C2936       C  0.82879350  0.45060613  0.04644980    -0.27100
F2937       F  0.81282333  0.48143209  0.09113635    -0.19200
H2938       H  0.83596965  0.45223653  0.10574318     0.16500
F2939       F  0.84941699  0.42043515  0.04424567    -0.22900
H2940       H  0.82653836  0.44992632  0.02990994     0.18300
C2941       C  0.81204428  0.42158708  0.19964011    -0.27000
C2942       C  0.79162718  0.41418915  0.19835925     0.06600
C2943       C  0.78720846  0.39745417  0.18524913     0.26300
C2944       C  0.80300142  0.38862938  0.17323555    -0.11400
C2945       C  0.82324759  0.39673936  0.17379508    -0.25400
C2946       C  0.82767706  0.41310776  0.18742118     0.37100
C2947       C  0.77506457  0.42529091  0.20962434     0.06700
F2948       F  0.76760094  0.38991200  0.18384321    -0.19200
H2949       H  0.79920550  0.37612040  0.16281320     0.16500
F2950       F  0.84708617  0.42119796  0.18868763    -0.22900
H2951       H  0.81571941  0.43454140  0.20956516     0.18300
C2952       C  0.77652246  0.42818924  0.23104413     0.26300
C2953       C  0.76328468  0.44202208  0.24102568    -0.11400
C2954       C  0.74842027  0.45323786  0.22983007    -0.25500
C2955       C  0.74613745  0.44945939  0.20859787     0.37200
C2956       C  0.75937237  0.43553115  0.19860177    -0.27100
F2957       F  0.79132403  0.41826302  0.24214840    -0.19200
H2958       H  0.76519092  0.44464449  0.25741352     0.16500
F2959       F  0.73230490  0.46043592  0.19726274    -0.22900
H2960       H  0.75823381  0.43371656  0.18204560     0.18300
C2961       C  0.91822739  0.69858663  0.30135807    -0.27000
C2962       C  0.92754868  0.68816103  0.28484712     0.06600
C2963       C  0.92474027  0.66681830  0.28281517     0.26300
C2964       C  0.91326712  0.65596398  0.29749060    -0.11400
C2965       C  0.90470749  0.66614684  0.31468192    -0.25400
C2966       C  0.90699316  0.68773193  0.31625077     0.37100
C2967       C  0.94195058  0.69925823  0.27112491     0.06700
F2968       F  0.93356908  0.65642293  0.26690603    -0.19200
H2969       H  0.91182113  0.63941604  0.29580129     0.16500
F2970       F  0.89886628  0.69833407  0.33239108    -0.22900
H2971       H  0.92039624  0.71505448  0.30316392     0.18300
C2972       C  0.93480610  0.71433214  0.25732080     0.26300
C2973       C  0.94899356  0.72557045  0.24546777    -0.11400
C2974       C  0.97042470  0.72216711  0.24760840    -0.25500
C2975       C  0.97747299  0.70682628  0.26116605     0.37200
C2976       C  0.96330644  0.69537823  0.27269374    -0.27100
F2977       F  0.91419294  0.71826619  0.25548895    -0.19200
H2978       H  0.94332973  0.73740825  0.23513892     0.16500
F2979       F  0.99808994  0.70308104  0.26337596    -0.22900
H2980       H  0.96902350  0.68383287  0.28332301     0.18300
C2981       C  0.94931877  0.69199568  0.49178587    -0.27000
C2982       C  0.96030261  0.68319380  0.47529767     0.06600
C2983       C  0.98157092  0.68738289  0.47319356     0.26300
C2984       C  0.99149895  0.70078839  0.48695517    -0.11400
C2985       C  0.98036339  0.71033345  0.50296856    -0.25400
C2986       C  0.95922518  0.70552926  0.50551671     0.37100
C2987       C  0.94904558  0.67160372  0.45910150     0.06700
F2988       F  0.99258088  0.67890756  0.45749693    -0.19200
H2989       H  0.00779691  0.70421193  0.48476864     0.16500
F2990       F  0.94783866  0.71499203  0.52035710    -0.22900
H2991       H  0.93284330  0.68915666  0.49340609     0.18300
C2992       C  0.93965932  0.65251503  0.46318696     0.26300
C2993       C  0.92803874  0.64246744  0.44784231    -0.11400
C2994       C  0.92532069  0.65151105  0.42831866    -0.25500
C2995       C  0.93518295  0.67049670  0.42423950     0.37200
C2996       C  0.94697518  0.68030436  0.43946878    -0.27100
F2997       F  0.94168530  0.64367239  0.48201384    -0.19200
H2998       H  0.92066935  0.62792917  0.45143772     0.16500
F2999       F  0.93337598  0.67974413  0.40557303    -0.22900
H3000       H  0.95411822  0.69501941  0.43609924     0.18300
C3001       C  0.93952595  0.54241963  0.32460325    -0.27000
C3002       C  0.95997289  0.54275052  0.33210265     0.06600
C3003       C  0.96463017  0.55471555  0.34965309     0.26300
C3004       C  0.94905171  0.56646879  0.35917981    -0.11400
C3005       C  0.92881689  0.56672601  0.35103438    -0.25400
C3006       C  0.92412140  0.55426263  0.33389148     0.37100
C3007       C  0.97623199  0.53161578  0.32037765     0.06700
F3008       F  0.98422227  0.55524121  0.35737456    -0.19200
H3009       H  0.95299228  0.57604365  0.37230700     0.16500
F3010       F  0.90463839  0.55378482  0.32585983    -0.22900
H3011       H  0.93561278  0.53352209  0.31100063     0.18300
C3012       C  0.97302947  0.51105324  0.31426097     0.26300
C3013       C  0.98603477  0.50191045  0.29968986    -0.11400
C3014       C  0.00251066  0.51303821  0.29094968    -0.25500
C3015       C  0.00662813  0.53312854  0.29812297     0.37200
C3016       C  0.99354009  0.54232107  0.31272568    -0.27100
F3017       F  0.95676887  0.50008758  0.32175988    -0.19200
H3018       H  0.98278489  0.48631470  0.29464864     0.16500
F3019       F  0.02225357  0.54443775  0.28986775    -0.22900
H3020       H  0.99614792  0.55824257  0.31704215     0.18300
C3021       C  0.78190042  0.52560513  0.45624367    -0.27000
C3022       C  0.80330761  0.52147392  0.45596761     0.06600
C3023       C  0.81086169  0.50464927  0.46745284     0.26300
C3024       C  0.79712899  0.49224878  0.47880525    -0.11400
C3025       C  0.77570968  0.49649996  0.47898656    -0.25400
C3026       C  0.76825290  0.51321833  0.46735197     0.37100
C3027       C  0.81719639  0.53489159  0.44344648     0.06700
F3028       F  0.83139406  0.49997354  0.46742543    -0.19200
H3029       H  0.80324435  0.47951626  0.48768460     0.16500
F3030       F  0.74762971  0.51744947  0.46641761    -0.22900
H3031       H  0.77565105  0.53858983  0.44783773     0.18300
C3032       C  0.81134238  0.54049179  0.42331718     0.26300
C3033       C  0.82265560  0.55522283  0.41247801    -0.11400
C3034       C  0.84038744  0.56444506  0.42114103    -0.25500
C3035       C  0.84710212  0.55799718  0.44073925     0.37200
C3036       C  0.83545968  0.54345655  0.45186939    -0.27100
F3037       F  0.79449634  0.53183414  0.41411455    -0.19200
H3038       H  0.81742549  0.55954069  0.39722591     0.16500
F3039       F  0.86419303  0.56652592  0.44957194    -0.22900
H3040       H  0.84026150  0.53952243  0.46734551     0.18300
C3041       C  0.79796284  0.68687651  0.42814247    -0.27000
C3042       C  0.80608253  0.70687375  0.43037071     0.06600
C3043       C  0.82378084  0.71235336  0.41897868     0.26300
C3044       C  0.83358186  0.69785011  0.40636993    -0.11400
C3045       C  0.82596656  0.67757078  0.40473470    -0.25400
C3046       C  0.80765250  0.67238581  0.41539240     0.37100
C3047       C  0.79666868  0.72149067  0.44535053     0.06700
F3048       F  0.83173429  0.73170333  0.42013762    -0.19200
H3049       H  0.84751169  0.70243478  0.39825465     0.16500
F3050       F  0.79953989  0.65309910  0.41429583    -0.22900
H3051       H  0.78448739  0.68217117  0.43690990     0.18300
C3052       C  0.77499708  0.72412099  0.44640295     0.26300
C3053       C  0.76631251  0.73688661  0.46147832    -0.11400
C3054       C  0.77905388  0.74748486  0.47548789    -0.25500
C3055       C  0.80066264  0.74533393  0.47423283     0.37200
C3056       C  0.80937684  0.73230011  0.45938345    -0.27100
F3057       F  0.76221764  0.71450846  0.43276544    -0.19200
H3058       H  0.74960909  0.73851670  0.46226710     0.16500
F3059       F  0.81324973  0.75529267  0.48779797    -0.22900
H3060       H  0.82604526  0.73026101  0.45919324     0.18300
C3061       C  0.78504491  0.57504052  0.31508246    -0.27000
C3062       C  0.79284087  0.56298859  0.29891679     0.06600
C3063       C  0.81390423  0.56461844  0.29362471     0.26300
C3064       C  0.82712992  0.57747154  0.30499679    -0.11400
C3065       C  0.81963805  0.58876715  0.32199891    -0.25400
C3066       C  0.79825063  0.58773894  0.32662134     0.37100
C3067       C  0.77920981  0.54768676  0.28873365     0.06700
F3068       F  0.82175510  0.55343509  0.27773447    -0.19200
H3069       H  0.84341163  0.57793354  0.30094652     0.16500
F3070       F  0.79013139  0.59828535  0.34279710    -0.22900
H3071       H  0.76884578  0.57392412  0.31934158     0.18300
C3072       C  0.78344965  0.52655944  0.29056436     0.26300
C3073       C  0.77012575  0.51203747  0.28169554    -0.11400
C3074       C  0.75247213  0.51824819  0.27047963    -0.25500
C3075       C  0.74826245  0.53949989  0.26868203     0.37200
C3076       C  0.76143552  0.55403560  0.27794888    -0.27100
F3077       F  0.80025911  0.51994993  0.30133986    -0.19200
H3078       H  0.77362700  0.49585243  0.28366183     0.16500
F3079       F  0.73191461  0.54630935  0.25737308    -0.22900
H3080       H  0.75797046  0.57028233  0.27644060     0.18300
C3081       C  0.53872806  0.57672291  0.68195738    -0.27000
C3082       C  0.53593589  0.55571787  0.67752983     0.06600
C3083       C  0.54665856  0.54696763  0.66073616     0.26300
C3084       C  0.56087724  0.55885230  0.64945502    -0.11400
C3085       C  0.56468579  0.57944554  0.65500271    -0.25400
C3086       C  0.55307615  0.58842139  0.67099091     0.37100
C3087       C  0.52328833  0.54294560  0.69172820     0.06700
F3088       F  0.54445994  0.52666368  0.65613702    -0.19200
H3089       H  0.56974586  0.55168431  0.63724738     0.16500
F3090       F  0.55601511  0.60846211  0.67636506    -0.22900
H3091       H  0.53030944  0.58390327  0.69447810     0.18300
C3092       C  0.52707441  0.54382768  0.71307296     0.26300
C3093       C  0.51511962  0.53223970  0.72666119    -0.11400
C3094       C  0.49919609  0.51930700  0.71939093    -0.25500
C3095       C  0.49542904  0.51826935  0.69799554     0.37200
C3096       C  0.50742595  0.53000240  0.68430811    -0.27100
F3097       F  0.54264543  0.55566419  0.72083188    -0.19200
H3098       H  0.51825875  0.53352365  0.74301361     0.16500
F3099       F  0.48053234  0.50560893  0.69026784    -0.22900
H3100       H  0.50423316  0.52911160  0.66794596     0.18300
C3101       C  0.68086849  0.71897199  0.58769985    -0.27000
C3102       C  0.69846630  0.71229094  0.57678305     0.06600
C3103       C  0.70306424  0.69111570  0.57620118     0.26300
C3104       C  0.69018755  0.67699065  0.58606961    -0.11400
C3105       C  0.67227929  0.68352083  0.59658097    -0.25400
C3106       C  0.66779566  0.70476360  0.59743320     0.37100
C3107       C  0.71135849  0.72710425  0.56500675     0.06700
F3108       F  0.71949795  0.68390129  0.56528099    -0.19200
H3109       H  0.69401886  0.66077581  0.58496677     0.16500
F3110       F  0.65085291  0.71185952  0.60762288    -0.22900
H3111       H  0.67715387  0.73522654  0.58856369     0.18300
C3112       C  0.70207011  0.74118752  0.55133041     0.26300
C3113       C  0.71437061  0.75325904  0.53839386    -0.11400
C3114       C  0.73603214  0.75127167  0.53865570    -0.25500
C3115       C  0.74541532  0.73788378  0.55284420     0.37200
C3116       C  0.73315128  0.72607162  0.56606613    -0.27100
F3117       F  0.68111269  0.74231392  0.54945660    -0.19200
H3118       H  0.70694665  0.76341899  0.52740231     0.16500
F3119       F  0.76639083  0.73597475  0.55361279    -0.22900
H3120       H  0.74066449  0.71565341  0.57674211     0.18300
C3121       C  0.68663918  0.54669166  0.57739404    -0.27000
C3122       C  0.67636641  0.53572252  0.56179536     0.06600
C3123       C  0.65547486  0.54034615  0.55742952     0.26300
C3124       C  0.64528977  0.55616281  0.56818711    -0.11400
C3125       C  0.65588208  0.56773912  0.58326370    -0.25400
C3126       C  0.67662296  0.56253031  0.58799908     0.37100
C3127       C  0.68822227  0.52050377  0.54948948     0.06700
F3128       F  0.64497045  0.52960399  0.54276265    -0.35200
H3129       H  0.62931255  0.55964843  0.56440186     0.16500
F3130       F  0.68736223  0.57270587  0.60291697    -0.22900
H3131       H  0.70270427  0.54335851  0.58098402     0.18300
C3132       C  0.69054348  0.52316337  0.52813638     0.26300
C3133       C  0.70417123  0.51059650  0.51705183    -0.11400
C3134       C  0.71565540  0.49511280  0.52700562    -0.25500
C3135       C  0.71279082  0.49194352  0.54822821     0.37200
C3136       C  0.69927042  0.50465623  0.55937606    -0.27100
F3137       F  0.68064583  0.53873624  0.51822612    -0.19200
H3138       H  0.70618839  0.51328943  0.50071451     0.16500
F3139       F  0.72394106  0.47739537  0.55837419    -0.22900
H3140       H  0.69784125  0.50253112  0.57585878     0.18300
C3141       C  0.71497652  0.59439076  0.68949056    -0.27000
C3142       C  0.70845064  0.57856533  0.70277327     0.06600
C3143       C  0.68704405  0.57470927  0.70481140     0.26300
C3144       C  0.67265679  0.58584818  0.69328421    -0.11400
C3145       C  0.67917734  0.60079130  0.67910520    -0.25400
C3146       C  0.70051843  0.60534351  0.67762442     0.37100
C3147       C  0.72374161  0.56500359  0.71331606     0.06700
F3148       F  0.67997959  0.55918048  0.71689310    -0.19200
H3149       H  0.65639617  0.58190145  0.69467095     0.16500
F3150       F  0.70746380  0.62009061  0.66452632    -0.22900
H3151       H  0.73130564  0.59796376  0.68795997     0.18300
C3152       C  0.74026812  0.55597012  0.70233880     0.26300
C3153       C  0.75244938  0.54064903  0.71149840    -0.11400
C3154       C  0.74827919  0.53391331  0.73163096    -0.25500
C3155       C  0.73256133  0.54376115  0.74298552     0.37200
C3156       C  0.72060185  0.55927779  0.73395853    -0.27100
F3157       F  0.74380870  0.56088924  0.68232965    -0.19200
H3158       H  0.76448553  0.53329872  0.70247634     0.16500
F3159       F  0.72857126  0.53820502  0.76273856    -0.22900
H3160       H  0.70839760  0.56639435  0.74293781     0.18300
C3161       C  0.51710646  0.68745543  0.52284017    -0.27000
C3162       C  0.53797284  0.68191452  0.51999817     0.06600
C3163       C  0.54827970  0.68849788  0.50207370     0.26300
C3164       C  0.53832030  0.70173970  0.48814877    -0.11400
C3165       C  0.51798316  0.70859347  0.49190253    -0.25400
C3166       C  0.50715234  0.70059948  0.50893209     0.37100
C3167       C  0.54942997  0.67137274  0.53684498     0.06700
F3168       F  0.56846603  0.68346806  0.49886220    -0.19200
H3169       H  0.54695854  0.70770646  0.47516955     0.16500
F3170       F  0.48716863  0.70615610  0.51255405    -0.22900
H3171       H  0.50877319  0.68224393  0.53633442     0.18300
C3172       C  0.55013295  0.68030257  0.55660955     0.26300
C3173       C  0.56188858  0.67126285  0.57228023    -0.11400
C3174       C  0.57301258  0.65296503  0.56874761    -0.25500
C3175       C  0.57194948  0.64372314  0.54908539     0.37200
C3176       C  0.56037924  0.65298430  0.53324382    -0.27100
F3177       F  0.54008181  0.69827144  0.56056609    -0.19200
H3178       H  0.56242199  0.67872276  0.58722106     0.16500
F3179       F  0.58276308  0.62626197  0.54490939    -0.22900
H3180       H  0.56006409  0.64589053  0.51812706     0.18300
C3181       C  0.58361874  0.68519295  0.71727990    -0.27000
C3182       C  0.56841082  0.69919557  0.71075067     0.06600
C3183       C  0.56555668  0.70256946  0.68952253     0.26300
C3184       C  0.57737402  0.69170051  0.67512019    -0.11400
C3185       C  0.59208790  0.67711468  0.68158057    -0.25400
C3186       C  0.59537415  0.67421058  0.70288440     0.37100
C3187       C  0.55519788  0.70994801  0.72598910     0.06700
F3188       F  0.55060313  0.71561844  0.68267158    -0.19200
H3189       H  0.57433196  0.69405444  0.65887318     0.16500
F3190       F  0.60977304  0.66061786  0.70985294    -0.22900
H3191       H  0.58625952  0.68263683  0.73356559     0.18300
C3192       C  0.54390212  0.69886837  0.74085860     0.26300
C3193       C  0.53002325  0.70914028  0.75390011    -0.11400
C3194       C  0.52717504  0.73051081  0.75217535    -0.25500
C3195       C  0.53915632  0.74164744  0.73793957     0.37200
C3196       C  0.55304022  0.73142961  0.72500744    -0.27100
F3197       F  0.54543483  0.67803379  0.74201736    -0.19200
H3198       H  0.52085664  0.70032862  0.76470623     0.16500
F3199       F  0.53724257  0.76242456  0.73638727    -0.22900
H3200       H  0.56188491  0.74025524  0.71395262     0.18300
loop_ 
_geom_bond_atom_site_label_1 
_geom_bond_atom_site_label_2 
_geom_bond_distance 
_geom_bond_site_symmetry_2 
_ccdc_geom_bond_type 
O1           C17   1.277       .  A
O1           Zn7   2.036       .  S
C2           O18   1.277       .  A
C2           O15   1.273       .  A
C2         C3105   1.484       .  S
O3           C16   1.279       .  A
O3          Cd10   2.095       .  S
O4           C22   1.273       .  A
O4          Cd13   2.050       .  S
O5           C19   1.274       .  A
O5           Cd9   2.062       .  S
O6           C17   1.271       .  A
O6           Cd9   2.046       .  S
Zn7          O18   2.040       .  S
Zn7          O20   2.019       .  S
Zn7          O12   1.940       .  S
O8           C19   1.273       .  A
O8          Cd13   2.070       .  S
Cd9          O11   2.047       .  S
Cd9          O12   1.978       .  S
Cd10         O14   2.101       .  S
Cd10         O23   2.096       .  S
Cd10         O12   2.016       .  S
O11          C21   1.273       .  A
O12         Cd13   1.982       .  S
Cd13         O15   2.049       .  S
O14          C21   1.278       .  A
C16          O20   1.276       .  A
C16        C3174   1.485       .  S
C17        C3185   1.479       .  S
C19        C3145   1.481       .  S
C21        C3085   1.475       .  S
C22          O23   1.279       .  A
C22        C3125   1.484       .  S
O24          C40   1.275       .  A
O24         Zn30   2.025       .  S
C25          O41   1.275       .  A
C25          O38   1.275       .  A
C25        C2965   1.487       .  S
O26          C39   1.277       .  A
O26         Cd33   2.091       .  S
O27          C45   1.275       .  A
O27         Cd36   2.061       .  S
O28          C42   1.276       .  A
O28         Cd32   2.075       .  S
O29          C40   1.274       .  A
O29         Cd32   2.067       .  S
Zn30         O41   2.025       .  S
Zn30         O43   1.993       .  S
Zn30         O35   1.932       .  S
O31          C42   1.275       .  A
O31         Cd36   2.064       .  S
Cd32         O34   2.055       .  S
Cd32         O35   1.987       .  S
Cd33         O37   2.105       .  S
Cd33         O46   2.095       .  S
Cd33         O35   2.020       .  S
O34          C44   1.274       .  A
O35         Cd36   1.988       .  S
Cd36         O38   2.071       .  S
O37          C44   1.279       .  A
C39          O43   1.273       .  A
C39        C3005   1.475       .  S
C40        C3065   1.488       .  S
C42        C3045   1.486       .  S
C44        C3034   1.483       .  S
C45          O46   1.279       .  A
C45        C2994   1.487       .  S
O47          C63   1.275       .  A
O47         Zn53   2.023       .  S
C48          O64   1.275       .  A
C48          O61   1.277       .  A
C48        C2934   1.486       .  S
O49          C62   1.279       .  A
O49         Cd56   2.100       .  S
O50          C68   1.274       .  A
O50         Cd59   2.055       .  S
O51          C65   1.276       .  A
O51         Cd55   2.077       .  S
O52          C63   1.275       .  A
O52         Cd55   2.065       .  S
Zn53         O64   2.016       .  S
Zn53         O66   2.002       .  S
Zn53         O58   1.930       .  S
O54          C65   1.277       .  A
O54         Cd59   2.077       .  S
Cd55         O57   2.047       .  S
Cd55         O58   1.983       .  S
Cd56         O60   2.099       .  S
Cd56         O69   2.096       .  S
Cd56         O58   2.017       .  S
O57          C67   1.273       .  A
O58         Cd59   1.988       .  S
Cd59         O61   2.078       .  S
O60          C67   1.278       .  A
C62          O66   1.273       .  A
C62        C2945   1.481       .  S
C63        C2894   1.487       .  S
C65        C2854   1.490       .  S
C67        C2874   1.478       .  S
C68          O69   1.280       .  A
C68        C2914   1.489       .  S
C70        C2805   1.474       .  S
C70          C71   1.405       .  A
C70          C75   1.404   1_556  A
C71          C72   1.405       .  A
C71          H76   1.084       .  S
C72        C2825   1.483       .  S
C72          C73   1.404   1_556  A
C73          C74   1.403       .  A
C73          H77   1.084       .  S
C74        C2925   1.478       .  S
C74          C75   1.403       .  A
C75          H78   1.084       .  S
C79        C2785   1.491       .  S
C79          C80   1.408       .  A
C79          C84   1.411       .  A
C80          C81   1.400       .  A
C80          H85   1.083       .  S
C81        C2885   1.474       .  S
C81          C82   1.397       .  A
C82          C83   1.404       .  A
C82          H86   1.084   1_455  S
C83        C3014   1.484       .  S
C83          C84   1.407       .  A
C84          H87   1.083       .  S
O88         C104   1.276       .  A
O88         Zn94   2.029       .  S
C89         O105   1.274       .  A
C89         O102   1.277       .  A
C89        C2685   1.483       .  S
O90         C103   1.278       .  A
O90         Cd97   2.105       .  S
O91         C109   1.274       .  A
O91        Cd100   2.052       .  S
O92         C106   1.274       .  A
O92         Cd96   2.069       .  S
O93         C104   1.275       .  A
O93         Cd96   2.068       .  S
Zn94        O105   2.010       .  S
Zn94        O107   1.994       .  S
Zn94         O99   1.930       .  S
O95         C106   1.277       .  A
O95        Cd100   2.086       .  S
Cd96         O98   2.046       .  S
Cd96         O99   1.982       .  S
Cd97        O101   2.094       .  S
Cd97        O110   2.108       .  S
Cd97         O99   2.026       .  S
O98         C108   1.274       .  A
O99        Cd100   1.988       .  S
Cd100       O102   2.074       .  S
O101        C108   1.278       .  A
C103        O107   1.272       .  A
C103       C2714   1.477       .  S
C104       C2765   1.484       .  S
C106       C2725   1.491       .  S
C108       C2745   1.473       .  S
C109        O110   1.280       .  A
C109       C2834   1.479       .  S
O111        C127   1.276       .  A
O111       Zn117   2.029       .  S
C112        O128   1.274       .  A
C112        O125   1.277       .  A
C112       C2645   1.488       .  S
O113        C126   1.276       .  A
O113       Cd120   2.084       .  S
O114        C132   1.275       .  A
O114       Cd123   2.063       .  S
O115        C129   1.277       .  A
O115       Cd119   2.080       .  S
O116        C127   1.274       .  A
O116       Cd119   2.064       .  S
Zn117       O128   2.020       .  S
Zn117       O130   2.004       .  S
Zn117       O122   1.934       .  S
O118        C129   1.275       .  A
O118       Cd123   2.071       .  S
Cd119       O121   2.063       .  S
Cd119       O122   1.990       .  S
Cd120       O124   2.095       .  S
Cd120       O133   2.089       .  S
Cd120       O122   2.021       .  S
O121        C131   1.274       .  A
O122       Cd123   1.993       .  S
Cd123       O125   2.088       .  S
O124        C131   1.277       .  A
C126        O130   1.274       .  A
C126       C2665   1.474       .  S
C127       C2605   1.483       .  S
C129       C2574   1.487       .  S
C131       C2585   1.475       .  S
C132        O133   1.277       .  A
C132       C2625   1.474       .  S
C134       C2554   1.497       .  S
C134        C135   1.411       .  A
C134        C139   1.413       .  A
C135        C136   1.402       .  A
C135        H140   1.082       .  S
C136       C2614   1.479       .  S
C136        C137   1.399       .  A
C137        C138   1.403       .  A
C137        H141   1.084   1_554  S
C138       C2705   1.490   1_554  S
C138        C139   1.406       .  A
C139        H142   1.082       .  S
C143       C2534   1.488       .  S
C143        C144   1.410       .  A
C143        C148   1.411       .  A
C144        C145   1.406       .  A
C144        H149   1.083       .  S
C145       C2674   1.484       .  S
C145        C146   1.401       .  A
C146        C147   1.399       .  A
C146        H150   1.084       .  S
C147       C2774   1.482       .  S
C147        C148   1.404       .  A
C148        H151   1.083       .  S
C152       C2485   1.481       .  S
C152        C153   1.409       .  A
C152        C157   1.406       .  A
C153        C154   1.405       .  A
C153        H158   1.084   1_565  S
C154       C2654   1.478   1_565  S
C154        C155   1.399       .  A
C155        C156   1.401       .  A
C155        H159   1.084       .  S
C156       C2505   1.481       .  S
C156        C157   1.403       .  A
C157        H160   1.084       .  S
C161       C2425   1.501       .  S
C161        C162   1.413       .  A
C161        C166   1.413   1_565  A
C162        C163   1.404       .  A
C162        H167   1.082       .  S
C163       C2454   1.480       .  S
C163        C164   1.398       .  A
C164        C165   1.400   1_565  A
C164        H168   1.085   1_655  S
C165       C2465   1.481       .  S
C165        C166   1.405       .  A
C166        H169   1.081       .  S
C170       C2394   1.505       .  S
C170        C171   1.415   1_556  A
C170        C175   1.415       .  A
C171        C172   1.405       .  A
C171        H176   1.082       .  S
C172       C2414   1.488       .  S
C172        C173   1.401   1_554  A
C173        C174   1.400       .  A
C173        H177   1.084       .  S
C174       C2594   1.486       .  S
C174        C175   1.405       .  A
C175        H178   1.081       .  S
C179       C2345   1.478       .  S
C179        C180   1.406   1_556  A
C179        C184   1.408       .  A
C180        C181   1.403       .  A
C180        H185   1.084       .  S
C181       C2365   1.480       .  S
C181        C182   1.400   1_554  A
C182        C183   1.402       .  A
C182        H186   1.084   1_565  S
C183       C2565   1.486       .  S
C183        C184   1.407       .  A
C184        H187   1.083       .  S
C188       C2285   1.482       .  S
C188        C189   1.407   1_565  A
C188        C193   1.407       .  A
C189        C190   1.406       .  A
C189        H194   1.084       .  S
C190       C2334   1.488       .  S
C190        C191   1.405   1_545  A
C191        C192   1.404       .  A
C191        H195   1.083       .  S
C192       C2314   1.485       .  S
C192        C193   1.403       .  A
C193        H196   1.084       .  S
C197       C2254   1.480       .  S
C197        C198   1.408   1_655  A
C197        C202   1.406       .  A
C198        C199   1.407       .  A
C198        H203   1.084       .  S
C199       C2274   1.479       .  S
C199        C200   1.401   1_455  A
C200        C201   1.399       .  A
C200        H204   1.085   1_556  S
C201       C2845   1.473       .  S
C201        C202   1.402       .  A
C202        H205   1.084       .  S
C206       C2205   1.501       .  S
C206        C207   1.412       .  A
C206        C211   1.414   1_455  A
C207        C208   1.400       .  A
C207        H212   1.083       .  S
C208       C2234   1.483       .  S
C208        C209   1.398       .  A
C209        C210   1.402   1_455  A
C209        H213   1.083       .  S
C210       C2865   1.487       .  S
C210        C211   1.409       .  A
C211        H214   1.081       .  S
O215        C231   1.274       .  A
O215       Zn221   2.017       .  S
C216        O232   1.273       .  A
C216        O229   1.276       .  A
C216       C2374   1.481       .  S
O217        C230   1.278       .  A
O217       Cd224   2.103       .  S
O218        C236   1.274       .  A
O218       Cd227   2.051       .  S
O219        C233   1.276       .  A
O219       Cd223   2.080       .  S
O220        C231   1.274       .  A
O220       Cd223   2.067       .  S
Zn221       O232   2.012       .  S
Zn221       O234   1.995       .  S
Zn221       O226   1.928       .  S
O222        C233   1.275       .  A
O222       Cd227   2.067       .  S
Cd223       O225   2.053       .  S
Cd223       O226   1.988       .  S
Cd224       O228   2.100       .  S
Cd224       O237   2.103       .  S
Cd224       O226   2.025       .  S
O225        C235   1.275       .  A
O226       Cd227   1.984       .  S
Cd227       O229   2.075       .  S
O228        C235   1.279       .  A
C230        O234   1.273       .  A
C230       C2325   1.480       .  S
C231       C2474   1.481       .  S
C233       C2265   1.486       .  S
C235       C2225   1.483       .  S
C236        O237   1.279       .  A
C236       C2405   1.476       .  S
O238        C254   1.276       .  A
O238       Zn244   2.028       .  S
C239        O255   1.273       .  A
C239        O252   1.274       .  A
C239       C2514   1.478       .  S
O240        C253   1.276       .  A
O240       Cd247   2.086       .  S
O241        C259   1.275       .  A
O241       Cd250   2.058       .  S
O242        C256   1.275       .  A
O242       Cd246   2.065       .  S
O243        C254   1.274       .  A
O243       Cd246   2.063       .  S
Zn244       O255   2.005       .  S
Zn244       O257   1.997       .  S
Zn244       O249   1.928       .  S
O245        C256   1.274       .  A
O245       Cd250   2.064       .  S
Cd246       O248   2.052       .  S
Cd246       O249   1.978       .  S
Cd247       O251   2.099       .  S
Cd247       O260   2.089       .  S
Cd247       O249   2.015       .  S
O248        C258   1.274       .  A
O249       Cd250   1.989       .  S
Cd250       O252   2.067       .  S
O251        C258   1.278       .  A
C253        O257   1.272       .  A
C253       C2165   1.465       .  S
C254       C2145   1.485       .  S
C256       C2125   1.479       .  S
C258       C2185   1.475       .  S
C259        O260   1.278       .  A
C259       C2105   1.487       .  S
O261        C277   1.277       .  A
O261       Zn267   2.033       .  S
C262        O278   1.275       .  A
C262        O275   1.274       .  A
C262       C2025   1.483       .  S
O263        C276   1.278       .  A
O263       Cd270   2.100       .  S
O264        C282   1.274       .  A
O264       Cd273   2.050       .  S
O265        C279   1.276       .  A
O265       Cd269   2.079       .  S
O266        C277   1.275       .  A
O266       Cd269   2.066       .  S
Zn267       O278   2.018       .  S
Zn267       O280   2.006       .  S
Zn267       O272   1.931       .  S
O268        C279   1.274       .  A
O268       Cd273   2.069       .  S
Cd269       O271   2.050       .  S
Cd269       O272   1.982       .  S
Cd270       O274   2.097       .  S
Cd270       O283   2.097       .  S
Cd270       O272   2.021       .  S
O271        C281   1.273       .  A
O272       Cd273   1.986       .  S
Cd273       O275   2.065       .  S
O274        C281   1.278       .  A
C276        O280   1.274       .  A
C276       C2305   1.480       .  S
C277       C2445   1.486       .  S
C279       C2054   1.482       .  S
C281       C2074   1.477       .  S
C282        O283   1.279       .  A
C282       C2085   1.487       .  S
C284       C2005   1.493       .  S
C284        C285   1.411   1_655  A
C284        C289   1.411       .  A
C285        C286   1.405       .  A
C285        H290   1.083       .  S
C286       C2045   1.482       .  S
C286        C287   1.401       .  A
C287        C288   1.401   1_455  A
C287        H291   1.085       .  S
C288       C2985   1.484       .  S
C288        C289   1.406       .  A
C289        H292   1.083       .  S
C293       C1994   1.480       .  S
C293        C294   1.406       .  A
C293        C298   1.406       .  A
C294        C295   1.404       .  A
C294        H299   1.083       .  S
C295       C2134   1.483   1_545  S
C295        C296   1.403       .  A
C296        C297   1.399       .  A
C296        H300   1.084   1_545  S
C297       C2034   1.476       .  S
C297        C298   1.402       .  A
C298        H301   1.084       .  S
C302       C1965   1.501       .  S
C302        C303   1.413       .  A
C302        C307   1.414       .  A
C303        C304   1.400       .  A
C303        H308   1.082       .  S
C304       C2094   1.477       .  S
C304        C305   1.397       .  A
C305        C306   1.401       .  A
C305        H309   1.084       .  S
C306       C2194   1.483       .  S
C306        C307   1.406       .  A
C307        H310   1.081       .  S
C311       C1954   1.483       .  S
C311        C312   1.408       .  A
C311        C316   1.407   1_455  A
C312        C313   1.406       .  A
C312        H317   1.083       .  S
C313       C2065   1.486       .  S
C313        C314   1.404   1_455  A
C314        C315   1.400       .  A
C314        H318   1.084       .  S
C315       C2974   1.478       .  S
C315        C316   1.401       .  A
C316        H319   1.084       .  S
C320       C1934   1.491       .  S
C320        C321   1.412   1_565  A
C320        C325   1.411       .  A
C321        C322   1.406       .  A
C321        H326   1.083       .  S
C322       C2634   1.484       .  S
C322        C323   1.401   1_545  A
C323        C324   1.396       .  A
C323        H327   1.084       .  S
C324       C2114   1.475       .  S
C324        C325   1.401       .  A
C325        H328   1.083       .  S
C329       C1905   1.478       .  S
C329        C330   1.406   1_556  A
C329        C334   1.408       .  A
C330        C331   1.403       .  A
C330        H335   1.084       .  S
C331       C2905   1.479       .  S
C331        C332   1.400   1_554  A
C332        C333   1.401       .  A
C332        H336   1.085       .  S
C333       C2694   1.480       .  S
C333        C334   1.405       .  A
C334        H337   1.084       .  S
C338       C1885   1.479       .  S
C338        C339   1.407       .  A
C338        C343   1.407       .  A
C339        C340   1.403       .  A
C339        H344   1.084       .  S
C340       C3194   1.477       .  S
C340        C341   1.401       .  A
C341        C342   1.397       .  A
C341        H345   1.085       .  S
C342       C2174   1.472       .  S
C342        C343   1.401       .  A
C343        H346   1.084       .  S
C347       C1865   1.499       .  S
C347        C348   1.415       .  A
C347        C352   1.412       .  A
C348        C349   1.408       .  A
C348        H353   1.082       .  S
C349       C3165   1.486       .  S
C349        C350   1.403       .  A
C350        C351   1.399       .  A
C350        H354   1.085       .  S
C351       C2154   1.481       .  S
C351        C352   1.401       .  A
C352        H355   1.082       .  S
C356       C1845   1.484       .  S
C356        C357   1.407       .  A
C356        C361   1.406       .  A
C357        C358   1.402       .  A
C357        H362   1.084       .  S
C358       C3054   1.472       .  S
C358        C359   1.400       .  A
C359        C360   1.400       .  A
C359        H363   1.085       .  S
C360       C3114   1.473       .  S
C360        C361   1.401       .  A
C361        H364   1.083       .  S
C365       C1834   1.493       .  S
C365        C366   1.409       .  A
C365        C370   1.411       .  A
C366        C367   1.401       .  A
C366        H371   1.083       .  S
C367       C2754   1.481       .  S
C367        C368   1.401       .  A
C368        C369   1.403       .  A
C368        H372   1.084       .  S
C369       C3094   1.488       .  S
C369        C370   1.405       .  A
C370        H373   1.081       .  S
C374       C1805   1.496       .  S
C374        C375   1.410       .  A
C374        C379   1.410       .  A
C375        C376   1.404       .  A
C375        H380   1.083       .  S
C376       C3154   1.484       .  S
C376        C377   1.404       .  A
C377        C378   1.400       .  A
C377        H381   1.084       .  S
C378       C2734   1.478       .  S
C378        C379   1.402       .  A
C379        H382   1.082       .  S
C383       C1785   1.494       .  S
C383        C384   1.413       .  A
C383        C388   1.410       .  A
C384        C385   1.408       .  A
C384        H389   1.083       .  S
C385       C3025   1.489       .  S
C385        C386   1.402       .  A
C386        C387   1.399       .  A
C386        H390   1.084       .  S
C387       C3134   1.482       .  S
C387        C388   1.403       .  A
C388        H391   1.083       .  S
C392       C1765   1.487       .  S
C392        C393   1.409       .  A
C392        C397   1.408       .  A
C393        C394   1.408       .  A
C393        H398   1.082       .  S
C394       C3074   1.491       .  S
C394        C395   1.403       .  A
C395        C396   1.400       .  A
C395        H399   1.084       .  S
C396       C2954   1.481       .  S
C396        C397   1.403       .  A
C397        H400   1.083       .  S
O401        C417   1.276       .  A
O401       Zn407   2.037       .  S
C402        O418   1.277       .  A
C402        O415   1.276       .  A
C402       C1705   1.489       .  S
O403        C416   1.279       .  A
O403       Cd410   2.097       .  S
O404        C422   1.275       .  A
O404       Cd413   2.058       .  S
O405        C419   1.273       .  A
O405       Cd409   2.054       .  S
O406        C417   1.274       .  A
O406       Cd409   2.062       .  S
Zn407       O418   2.033       .  S
Zn407       O420   1.997       .  S
Zn407       O412   1.933       .  S
O408        C419   1.277       .  A
O408       Cd413   2.084       .  S
Cd409       O411   2.047       .  S
Cd409       O412   1.979       .  S
Cd410       O414   2.098       .  S
Cd410       O423   2.094       .  S
Cd410       O412   2.019       .  S
O411        C421   1.272       .  A
O412       Cd413   1.990       .  S
Cd413       O415   2.069       .  S
O414        C421   1.278       .  A
C416        O420   1.274       .  A
C416       C1754   1.484       .  S
C417       C1665   1.487       .  S
C419       C1734   1.476       .  S
C421       C1685   1.477       .  S
C422        O423   1.278       .  A
C422       C1645   1.482       .  S
O424        C440   1.275       .  A
O424       Zn430   2.020       .  S
C425        O441   1.277       .  A
C425        O438   1.275       .  A
C425       C1634   1.488       .  S
O426        C439   1.278       .  A
O426       Cd433   2.093       .  S
O427        C445   1.275       .  A
O427       Cd436   2.059       .  S
O428        C442   1.273       .  A
O428       Cd432   2.062       .  S
O429        C440   1.275       .  A
O429       Cd432   2.062       .  S
Zn430       O441   2.031       .  S
Zn430       O443   2.013       .  S
Zn430       O435   1.933       .  S
O431        C442   1.276       .  A
O431       Cd436   2.075       .  S
Cd432       O434   2.052       .  S
Cd432       O435   1.984       .  S
Cd433       O437   2.087       .  S
Cd433       O446   2.092       .  S
Cd433       O435   2.011       .  S
O434        C444   1.273       .  A
O435       Cd436   1.985       .  S
Cd436       O438   2.066       .  S
O437        C444   1.277       .  A
C439        O443   1.275       .  A
C439       C1565   1.491       .  S
C440       C1605   1.483       .  S
C442       C1525   1.486       .  S
C444       C1585   1.483       .  S
C445        O446   1.279       .  A
C445       C1545   1.488       .  S
C447       C2525   1.492       .  S
C447        C448   1.413       .  A
C447        C452   1.408       .  A
C448        C449   1.409       .  A
C448        H453   1.083       .  S
C449       C1505   1.489       .  S
C449        C450   1.401       .  A
C450        C451   1.400       .  A
C450        H454   1.083       .  S
C451       C1614   1.487       .  S
C451        C452   1.403       .  A
C452        H455   1.083       .  S
O456        C472   1.275       .  A
O456       Zn462   2.021       .  S
C457        O473   1.275       .  A
C457        O470   1.274       .  A
C457       C1465   1.473       .  S
O458        C471   1.277       .  A
O458       Cd465   2.088       .  S
O459        C477   1.273       .  A
O459       Cd468   2.051       .  S
O460        C474   1.275       .  A
O460       Cd464   2.076       .  S
O461        C472   1.276       .  A
O461       Cd464   2.068       .  S
Zn462       O473   2.035       .  S
Zn462       O475   2.009       .  S
Zn462       O467   1.940       .  S
O463        C474   1.275       .  A
O463       Cd468   2.070       .  S
Cd464       O466   2.057       .  S
Cd464       O467   1.991       .  S
Cd465       O469   2.094       .  S
Cd465       O478   2.096       .  S
Cd465       O467   2.016       .  S
O466        C476   1.274       .  A
O467       Cd468   1.983       .  S
Cd468       O470   2.066       .  S
O469        C476   1.278       .  A
C471        O475   1.274       .  A
C471       C1425   1.481       .  S
C472       C1494   1.486       .  S
C474       C1445   1.488       .  S
C476       C1514   1.481       .  S
C477        O478   1.278       .  A
C477       C1405   1.477       .  S
C479       C1774   1.492       .  S
C479        C480   1.410       .  A
C479        C484   1.409       .  A
C480        C481   1.408       .  A
C480        H485   1.083       .  S
C481       C1394   1.492       .  S
C481        C482   1.404       .  A
C482        C483   1.403       .  A
C482        H486   1.083       .  S
C483       C1434   1.486       .  S
C483        C484   1.403       .  A
C484        H487   1.083       .  S
C488       C1894   1.493       .  S
C488        C489   1.411       .  A
C488        C493   1.408       .  A
C489        C490   1.407       .  A
C489        H494   1.083       .  S
C490       C1374   1.490       .  S
C490        C491   1.403       .  A
C491        C492   1.401       .  A
C491        H495   1.083   1_556  S
C492       C1345   1.483       .  S
C492        C493   1.402       .  A
C493        H496   1.082       .  S
O497        C513   1.275       .  A
O497       Zn503   2.016       .  S
C498        O514   1.277       .  A
C498        O511   1.274       .  A
C498       C1385   1.479       .  S
O499        C512   1.276       .  A
O499       Cd506   2.080       .  S
O500        C518   1.272       .  A
O500       Cd509   2.041       .  S
O501        C515   1.276       .  A
O501       Cd505   2.079       .  S
O502        C513   1.277       .  A
O502       Cd505   2.087       .  S
Zn503       O514   2.044       .  S
Zn503       O516   2.010       .  S
Zn503       O508   1.936       .  S
O504        C515   1.276       .  A
O504       Cd509   2.070       .  S
Cd505       O507   2.070       .  S
Cd505       O508   1.998       .  S
Cd506       O510   2.085       .  S
Cd506       O519   2.099       .  S
Cd506       O508   2.018       .  S
O507        C517   1.276       .  A
O508       Cd509   1.981       .  S
Cd509       O511   2.065       .  S
O510        C517   1.278       .  A
C512        O516   1.275       .  A
C512       C1265   1.477       .  S
C513       C1285   1.479       .  S
C515       C1365   1.487       .  S
C517       C1305   1.489       .  S
C518        O519   1.278       .  A
C518       C1325   1.481       .  S
C520       C1974   1.505       .  S
C520        C521   1.416       .  A
C520        C525   1.414       .  A
C521        C522   1.408       .  A
C521        H526   1.078       .  S
C522       C1654   1.493       .  S
C522        C523   1.401       .  A
C523        C524   1.399       .  A
C523        H527   1.084       .  S
C524       C1414   1.481       .  S
C524        C525   1.402       .  A
C525        H528   1.082       .  S
O529        C545   1.274       .  A
O529       Zn535   2.016       .  S
C530        O546   1.275       .  A
C530        O543   1.275       .  A
C530       C1245   1.486       .  S
O531        C544   1.277       .  A
O531       Cd538   2.093       .  S
O532        C550   1.275       .  A
O532       Cd541   2.057       .  S
O533        C547   1.275       .  A
O533       Cd537   2.070       .  S
O534        C545   1.275       .  A
O534       Cd537   2.068       .  S
Zn535       O546   2.023       .  S
Zn535       O548   1.995       .  S
Zn535       O540   1.932       .  S
O536        C547   1.276       .  A
O536       Cd541   2.083       .  S
Cd537       O539   2.060       .  S
Cd537       O540   1.987       .  S
Cd538       O542   2.088       .  S
Cd538       O551   2.084       .  S
Cd538       O540   2.013       .  S
O539        C549   1.274       .  A
O540       Cd541   1.993       .  S
Cd541       O543   2.067       .  S
O542        C549   1.278       .  A
C544        O548   1.272       .  A
C544       C1205   1.482       .  S
C545       C1185   1.472       .  S
C547       C1234   1.478       .  S
C549       C1165   1.480       .  S
C550        O551   1.277       .  A
C550       C1354   1.481       .  S
C552       C2814   1.489       .  S
C552        C553   1.407       .  A
C552        C557   1.410   1_556  A
C553        C554   1.402       .  A
C553        H558   1.083       .  S
C554       C1145   1.480       .  S
C554        C555   1.400       .  A
C555        C556   1.402   1_556  A
C555        H559   1.084       .  S
C556       C1254   1.487       .  S
C556        C557   1.406       .  A
C557        H560   1.083       .  S
O561        C577   1.274       .  A
O561       Zn567   2.013       .  S
C562        O578   1.275       .  A
C562        O575   1.274       .  A
C562       C1125   1.481       .  S
O563        C576   1.278       .  A
O563       Cd570   2.100       .  S
O564        C582   1.274       .  A
O564       Cd573   2.055       .  S
O565        C579   1.274       .  A
O565       Cd569   2.069       .  S
O566        C577   1.276       .  A
O566       Cd569   2.075       .  S
Zn567       O578   2.013       .  S
Zn567       O580   1.999       .  S
Zn567       O572   1.927       .  S
O568        C579   1.275       .  A
O568       Cd573   2.080       .  S
Cd569       O571   2.043       .  S
Cd569       O572   1.982       .  S
Cd570       O574   2.100       .  S
Cd570       O583   2.096       .  S
Cd570       O572   2.021       .  S
O571        C581   1.273       .  A
O572       Cd573   1.992       .  S
Cd573       O575   2.063       .  S
O574        C581   1.280       .  A
C576        O580   1.273       .  A
C576       C1074   1.489       .  S
C577       C1025   1.487       .  S
C579       C1094   1.476       .  S
C581       C1045   1.485       .  S
C582        O583   1.279       .  A
C582       C1114   1.484       .  S
C584       C2494   1.485       .  S
C584        C585   1.407       .  A
C584        C589   1.406   1_565  A
C585        C586   1.404       .  A
C585        H590   1.083       .  S
C586       C1005   1.484       .  S
C586        C587   1.402       .  A
C587        C588   1.403   1_565  A
C587        H591   1.084       .  S
C588       C1134   1.482       .  S
C588        C589   1.404       .  A
C589        H592   1.084       .  S
O593        C609   1.276       .  A
O593       Zn599   2.019       .  S
C594        O610   1.276       .  A
C594        O607   1.274       .  A
C594        C925   1.479       .  S
O595        C608   1.278       .  A
O595       Cd602   2.095       .  S
O596        C614   1.271       .  A
O596       Cd605   2.042       .  S
O597        C611   1.276       .  A
O597       Cd601   2.077       .  S
O598        C609   1.276       .  A
O598       Cd601   2.081       .  S
Zn599       O610   2.038       .  S
Zn599       O612   2.001       .  S
Zn599       O604   1.937       .  S
O600        C611   1.275       .  A
O600       Cd605   2.071       .  S
Cd601       O603   2.063       .  S
Cd601       O604   1.998       .  S
Cd602       O606   2.080       .  S
Cd602       O615   2.099       .  S
Cd602       O604   2.022       .  S
O603        C613   1.275       .  A
O604       Cd605   1.984       .  S
Cd605       O607   2.062       .  S
O606        C613   1.277       .  A
C608        O612   1.273       .  A
C608       C1014   1.487       .  S
C609        C945   1.485       .  S
C611        C965   1.484       .  S
C613       C1154   1.483       .  S
C614        O615   1.278       .  A
C614        C985   1.485       .  S
O616        C632   1.274       .  A
O616       Zn622   2.012       .  S
C617        O633   1.276       .  A
C617        O630   1.275       .  A
C617        C825   1.489       .  S
O618        C631   1.277       .  A
O618       Cd625   2.091       .  S
O619        C637   1.274       .  A
O619       Cd628   2.054       .  S
O620        C634   1.277       .  A
O620       Cd624   2.083       .  S
O621        C632   1.278       .  A
O621       Cd624   2.089       .  S
Zn622       O633   2.025       .  S
Zn622       O635   2.006       .  S
Zn622       O627   1.926       .  S
O623        C634   1.277       .  A
O623       Cd628   2.072       .  S
Cd624       O626   2.075       .  S
Cd624       O627   1.997       .  S
Cd625       O629   2.085       .  S
Cd625       O638   2.090       .  S
Cd625       O627   2.013       .  S
O626        C636   1.277       .  A
O627       Cd628   1.987       .  S
Cd628       O630   2.073       .  S
O629        C636   1.278       .  A
C631        O635   1.274       .  A
C631        C805   1.488       .  S
C632        C845   1.483       .  S
C634        C885   1.488       .  S
C636        C905   1.486       .  S
C637        O638   1.277       .  A
C637        C865   1.481       .  S
C639       C2014   1.482       .  S
C639        C640   1.410   1_655  A
C639        C644   1.406       .  A
C640        C641   1.407       .  A
C640        H645   1.084       .  S
C641        C914   1.486       .  S
C641        C642   1.403   1_455  A
C642        C643   1.400       .  A
C642        H646   1.084       .  S
C643        C994   1.480       .  S
C643        C644   1.403       .  A
C644        H647   1.084       .  S
C648       C1814   1.500       .  S
C648        C649   1.411       .  A
C648        C653   1.412       .  A
C649        C650   1.404       .  A
C649        H654   1.081       .  S
C650       C1745   1.485       .  S
C650        C651   1.403       .  A
C651        C652   1.403       .  A
C651        H655   1.083   1_655  S
C652        C894   1.491       .  S
C652        C653   1.406       .  A
C653        H656   1.082       .  S
C657       C1825   1.502       .  S
C657        C658   1.413       .  A
C657        C662   1.414       .  A
C658        C659   1.405       .  A
C658        H663   1.081       .  S
C659       C1714   1.489       .  S
C659        C660   1.399       .  A
C660        C661   1.401       .  A
C660        H664   1.084       .  S
C661        C874   1.488       .  S
C661        C662   1.405       .  A
C662        H665   1.080       .  S
C666       C1854   1.483       .  S
C666        C667   1.410       .  A
C666        C671   1.406       .  A
C667        C668   1.409       .  A
C667        H672   1.083       .  S
C668       C1625   1.492       .  S
C668        C669   1.405       .  A
C669        C670   1.399       .  A
C669        H673   1.084   1_565  S
C670       C1105   1.479       .  S
C670        C671   1.399       .  A
C671        H674   1.084       .  S
C675       C2214   1.499       .  S
C675        C676   1.412       .  A
C675        C680   1.411   1_455  A
C676        C677   1.405       .  A
C676        H681   1.082       .  S
C677       C1694   1.485       .  S
C677        C678   1.402       .  A
C678        C679   1.400   1_455  A
C678        H682   1.084       .  S
C679       C1054   1.484       .  S
C679        C680   1.403       .  A
C680        H683   1.081       .  S
C684       C2245   1.493       .  S
C684        C685   1.410   1_655  A
C684        C689   1.410       .  A
C685        C686   1.402       .  A
C685        H690   1.083       .  S
C686       C1674   1.478       .  S
C686        C687   1.400       .  A
C687        C688   1.405   1_455  A
C687        H691   1.084       .  S
C688       C1034   1.490       .  S
C688        C689   1.408       .  A
C689        H692   1.083       .  S
C693       C1874   1.501       .  S
C693        C694   1.413       .  A
C693        C698   1.409       .  A
C694        C695   1.410       .  A
C694        H699   1.081       .  S
C695       C1225   1.496       .  S
C695        C696   1.405       .  A
C696        C697   1.402       .  A
C696        H700   1.082       .  S
C697       C1334   1.485       .  S
C697        C698   1.402       .  A
C698        H701   1.082       .  S
C702       C2434   1.496       .  S
C702        C703   1.411       .  A
C702        C707   1.412   1_565  A
C703        C704   1.406       .  A
C703        H708   1.081       .  S
C704       C1194   1.491       .  S
C704        C705   1.402       .  A
C705        C706   1.399   1_565  A
C705        H709   1.084   1_565  S
C706       C1554   1.483       .  S
C706        C707   1.405       .  A
C707        H710   1.083       .  S
C711       C2354   1.489       .  S
C711        C712   1.409       .  A
C711        C716   1.410   1_556  A
C712        C713   1.401       .  A
C712        H717   1.083       .  S
C713        C814   1.475       .  S
C713        C714   1.400   1_556  A
C714        C715   1.402       .  A
C714        H718   1.084       .  S
C715       C1314   1.485       .  S
C715        C716   1.406       .  A
C716        H719   1.084       .  S
C720       C1794   1.484       .  S
C720        C721   1.408       .  A
C720        C725   1.408       .  A
C721        C722   1.408       .  A
C721        H726   1.083       .  S
C722       C1085   1.491       .  S
C722        C723   1.404       .  A
C723        C724   1.401       .  A
C723        H727   1.084       .  S
C724       C1574   1.483       .  S
C724        C725   1.406       .  A
C725        H728   1.083       .  S
C729       C2794   1.483       .  S
C729        C730   1.409       .  A
C729        C734   1.407       .  A
C730        C731   1.408       .  A
C730        H735   1.083       .  S
C731       C1474   1.492       .  S
C731        C732   1.402       .  A
C732        C733   1.402       .  A
C732        H736   1.083       .  S
C733       C1274   1.480       .  S
C733        C734   1.402       .  A
C734        H737   1.084       .  S
C738       C2385   1.507       .  S
C738        C739   1.413       .  A
C738        C743   1.417   1_556  A
C739        C740   1.405       .  A
C739        H744   1.080       .  S
C740        C834   1.492       .  S
C740        C741   1.402       .  A
C741        C742   1.402   1_556  A
C741        H745   1.084       .  S
C742       C1294   1.496       .  S
C742        C743   1.409       .  A
C743        H746   1.078       .  S
C747       C2294   1.489       .  S
C747        C748   1.409   1_565  A
C747        C752   1.410       .  A
C748        C749   1.404       .  A
C748        H753   1.083       .  S
C749       C1534   1.486       .  S
C749        C750   1.401   1_545  A
C750        C751   1.400       .  A
C750        H754   1.084       .  S
C751       C1174   1.481       .  S
C751        C752   1.404       .  A
C752        H755   1.083       .  S
C756       C2545   1.492       .  S
C756        C757   1.410       .  A
C756        C761   1.410       .  A
C757        C758   1.402       .  A
C757        H762   1.082       .  S
C758       C1594   1.481       .  S
C758        C759   1.400       .  A
C759        C760   1.402       .  A
C759        H763   1.084       .  S
C760       C1485   1.486       .  S
C760        C761   1.404       .  A
C761        H764   1.083       .  S
C765       C1985   1.487       .  S
C765        C766   1.409       .  A
C765        C770   1.405       .  A
C766        C767   1.409       .  A
C766        H771   1.082       .  S
C767       C1725   1.494       .  S
C767        C768   1.407       .  A
C768        C769   1.401       .  A
C768        H772   1.083       .  S
C769       C1454   1.476       .  S
C769        C770   1.399       .  A
C770        H773   1.083       .  S
C774       C1945   1.492       .  S
C774        C775   1.409       .  A
C774        C779   1.407   1_455  A
C775        C776   1.408       .  A
C775        H780   1.082       .  S
C776        C854   1.496       .  S
C776        C777   1.407       .  A
C777        C778   1.402   1_455  A
C777        H781   1.082   1_554  S
C778        C974   1.480       .  S
C778        C779   1.401       .  A
C779        H782   1.083       .  S
C783       C1914   1.486       .  S
C783        C784   1.409   1_556  A
C783        C788   1.409       .  A
C784        C785   1.407       .  A
C784        H789   1.083       .  S
C785       C1214   1.487       .  S
C785        C786   1.403   1_554  A
C786        C787   1.399       .  A
C786        H790   1.084   1_545  S
C787        C954   1.481       .  S
C787        C788   1.404       .  A
C788        H791   1.084       .  S
C792       C1925   1.484       .  S
C792        C793   1.405   1_565  A
C792        C797   1.407       .  A
C793        C794   1.403       .  A
C793        H798   1.084       .  S
C794       C1065   1.486       .  S
C794        C795   1.404   1_545  A
C795        C796   1.408       .  A
C795        H799   1.083   1_455  S
C796        C934   1.496       .  S
C796        C797   1.410       .  A
C797        H800   1.083       .  S
C801        C802   1.405       .  A
C801        C806   1.405       .  A
C801        H811   1.082       .  S
C802        C807   1.484       .  S
C802        C803   1.405       .  A
C803        C804   1.394       .  A
C803        F808   1.358       .  S
C804        C805   1.407       .  A
C804        H809   1.083       .  S
C805        C806   1.411       .  A
C806        F810   1.357       .  S
C807        C812   1.408       .  A
C807        C816   1.406       .  A
C812        C813   1.403       .  A
C812        F817   1.357       .  S
C813        C814   1.404       .  A
C813        H818   1.082       .  S
C814        C815   1.402       .  A
C815        C816   1.395       .  A
C815        F819   1.358       .  S
C816        H820   1.082       .  S
C821        C822   1.402       .  A
C821        C826   1.397       .  A
C821        H831   1.082       .  S
C822        C827   1.481       .  S
C822        C823   1.404       .  A
C823        C824   1.402       .  A
C823        F828   1.357       .  S
C824        C825   1.410       .  A
C824        H829   1.082       .  S
C825        C826   1.411       .  A
C826        F830   1.357       .  S
C827        C832   1.404       .  A
C827        C836   1.404       .  A
C832        C833   1.395       .  A
C832        F837   1.358       .  S
C833        C834   1.406       .  A
C833        H838   1.082       .  S
C834        C835   1.412       .  A
C835        C836   1.404       .  A
C835        F839   1.357       .  S
C836        H840   1.082       .  S
C841        C842   1.406       .  A
C841        C846   1.396       .  A
C841        H851   1.081       .  S
C842        C847   1.495       .  S
C842        C843   1.412       .  A
C843        C844   1.403       .  A
C843        F848   1.357       .  S
C844        C845   1.404       .  A
C844        H849   1.082       .  S
C845        C846   1.408       .  A
C846        F850   1.358       .  S
C847        C852   1.410   1_556  A
C847        C856   1.406       .  A
C852        C853   1.400       .  A
C852        F857   1.358       .  S
C853        C854   1.408       .  A
C853        H858   1.081       .  S
C854        C855   1.410   1_554  A
C855        C856   1.399       .  A
C855        F859   1.357   1_455  S
C856        H860   1.081       .  S
C861        C862   1.407       .  A
C861        C866   1.403       .  A
C861        H871   1.082       .  S
C862        C867   1.481       .  S
C862        C863   1.403       .  A
C863        C864   1.393       .  A
C863        F868   1.358       .  S
C864        C865   1.406       .  A
C864        H869   1.083       .  S
C865        C866   1.408       .  A
C866        F870   1.357       .  S
C867        C872   1.403       .  A
C867        C876   1.406       .  A
C872        C873   1.395       .  A
C872        F877   1.358       .  S
C873        C874   1.407       .  A
C873        H878   1.082       .  S
C874        C875   1.408       .  A
C875        C876   1.402       .  A
C875        F879   1.357       .  S
C876        H880   1.082       .  S
C881        C882   1.405       .  A
C881        C886   1.402       .  A
C881        H891   1.082       .  S
C882        C887   1.487       .  S
C882        C883   1.406       .  A
C883        C884   1.398       .  A
C883        F888   1.358       .  S
C884        C885   1.407       .  A
C884        H889   1.082       .  S
C885        C886   1.411       .  A
C886        F890   1.357       .  S
C887        C892   1.406       .  A
C887        C896   1.405       .  A
C892        C893   1.401   1_455  A
C892        F897   1.357   1_455  S
C893        C894   1.408       .  A
C893        H898   1.082       .  S
C894        C895   1.409   1_655  A
C895        C896   1.399       .  A
C895        F899   1.358       .  S
C896        H900   1.082       .  S
C901        C902   1.402       .  A
C901        C906   1.398       .  A
C901        H911   1.083       .  S
C902        C907   1.480       .  S
C902        C903   1.404       .  A
C903        C904   1.403       .  A
C903        F908   1.357       .  S
C904        C905   1.409       .  A
C904        H909   1.082       .  S
C905        C906   1.410       .  A
C906        F910   1.358       .  S
C907        C912   1.406       .  A
C907        C916   1.401       .  A
C912        C913   1.403       .  A
C912        F917   1.357       .  S
C913        C914   1.406       .  A
C913        H918   1.083       .  S
C914        C915   1.409       .  A
C915        C916   1.397       .  A
C915        F919   1.358       .  S
C916        H920   1.083       .  S
C921        C922   1.405       .  A
C921        C926   1.397       .  A
C921        H931   1.082       .  S
C922        C927   1.493       .  S
C922        C923   1.412       .  A
C923        C924   1.403       .  A
C923        F928   1.357       .  S
C924        C925   1.403       .  A
C924        H929   1.083       .  S
C925        C926   1.407       .  A
C926        F930   1.358       .  S
C927        C932   1.410       .  A
C927        C936   1.405       .  A
C932        C933   1.401   1_655  A
C932        F937   1.358   1_655  S
C933        C934   1.407       .  A
C933        H938   1.083       .  S
C934        C935   1.412   1_455  A
C935        C936   1.399       .  A
C935        F939   1.357   1_565  S
C936        H940   1.083       .  S
C941        C942   1.405       .  A
C941        C946   1.403       .  A
C941        H951   1.082       .  S
C942        C947   1.483       .  S
C942        C943   1.404       .  A
C943        C944   1.396       .  A
C943        F948   1.358       .  S
C944        C945   1.407       .  A
C944        H949   1.082       .  S
C945        C946   1.410       .  A
C946        F950   1.357       .  S
C947        C952   1.406       .  A
C947        C956   1.405       .  A
C952        C953   1.396       .  A
C952        F957   1.358       .  S
C953        C954   1.404   1_565  A
C953        H958   1.083       .  S
C954        C955   1.406       .  A
C955        C956   1.403   1_545  A
C955        F959   1.357       .  S
C956        H960   1.083       .  S
C961        C962   1.405       .  A
C961        C966   1.398       .  A
C961        H971   1.083       .  S
C962        C967   1.489       .  S
C962        C963   1.408       .  A
C963        C964   1.401       .  A
C963        F968   1.357       .  S
C964        C965   1.406       .  A
C964        H969   1.083       .  S
C965        C966   1.409       .  A
C966        F970   1.358       .  S
C967        C972   1.410       .  A
C967        C976   1.407       .  A
C972        C973   1.399   1_556  A
C972        F977   1.357       .  S
C973        C974   1.403       .  A
C973        H978   1.083       .  S
C974        C975   1.404   1_554  A
C975        C976   1.399       .  A
C975        F979   1.357   1_655  S
C976        H980   1.082       .  S
C981        C982   1.400       .  A
C981        C986   1.392       .  A
C981        H991   1.083       .  S
C982        C987   1.480       .  S
C982        C983   1.407       .  A
C983        C984   1.405       .  A
C983        F988   1.357       .  S
C984        C985   1.408       .  A
C984        H989   1.082       .  S
C985        C986   1.412       .  A
C986        F990   1.358       .  S
C987        C992   1.407       .  A
C987        C996   1.403       .  A
C992        C993   1.397       .  A
C992        F997   1.358       .  S
C993        C994   1.402       .  A
C993        H998   1.083       .  S
C994        C995   1.408       .  A
C995        C996   1.400       .  A
C995        F999   1.357       .  S
C996       H1000   1.083       .  S
C1001      C1002   1.401       .  A
C1001      C1006   1.398       .  A
C1001      H1011   1.083       .  S
C1002      C1007   1.474       .  S
C1002      C1003   1.404       .  A
C1003      C1004   1.400       .  A
C1003      F1008   1.357       .  S
C1004      C1005   1.406       .  A
C1004      H1009   1.083       .  S
C1005      C1006   1.408       .  A
C1006      F1010   1.358       .  S
C1007      C1012   1.404       .  A
C1007      C1016   1.398       .  A
C1012      C1013   1.404       .  A
C1012      F1017   1.357       .  S
C1013      C1014   1.409       .  A
C1013      H1018   1.082       .  S
C1014      C1015   1.412       .  A
C1015      C1016   1.394       .  A
C1015      F1019   1.358       .  S
C1016      H1020   1.083       .  S
C1021      C1022   1.400       .  A
C1021      C1026   1.399       .  A
C1021      H1031   1.083       .  S
C1022      C1027   1.474       .  S
C1022      C1023   1.402       .  A
C1023      C1024   1.398       .  A
C1023      F1028   1.357       .  S
C1024      C1025   1.408       .  A
C1024      H1029   1.082       .  S
C1025      C1026   1.414       .  A
C1026      F1030   1.358       .  S
C1027      C1032   1.403       .  A
C1027      C1036   1.400       .  A
C1032      C1033   1.402       .  A
C1032      F1037   1.357       .  S
C1033      C1034   1.409       .  A
C1033      H1038   1.083       .  S
C1034      C1035   1.411       .  A
C1035      C1036   1.396       .  A
C1035      F1039   1.357       .  S
C1036      H1040   1.084       .  S
C1041      C1042   1.398       .  A
C1041      C1046   1.391       .  A
C1041      H1051   1.083       .  S
C1042      C1047   1.478       .  S
C1042      C1043   1.406       .  A
C1043      C1044   1.405       .  A
C1043      F1048   1.357       .  S
C1044      C1045   1.408       .  A
C1044      H1049   1.082       .  S
C1045      C1046   1.412       .  A
C1046      F1050   1.358       .  S
C1047      C1052   1.406       .  A
C1047      C1056   1.402       .  A
C1052      C1053   1.398       .  A
C1052      F1057   1.358       .  S
C1053      C1054   1.404       .  A
C1053      H1058   1.082       .  S
C1054      C1055   1.409       .  A
C1055      C1056   1.399       .  A
C1055      F1059   1.358   1_655  S
C1056      H1060   1.082       .  S
C1061      C1062   1.404       .  A
C1061      C1066   1.399   1_655  A
C1061      H1071   1.082       .  S
C1062      C1067   1.481       .  S
C1062      C1063   1.404       .  A
C1063      C1064   1.401       .  A
C1063      F1068   1.357       .  S
C1064      C1065   1.407   1_655  A
C1064      H1069   1.082   1_545  S
C1065      C1066   1.407       .  A
C1066      F1070   1.358       .  S
C1067      C1072   1.402       .  A
C1067      C1076   1.405       .  A
C1072      C1073   1.394       .  A
C1072      F1077   1.358       .  S
C1073      C1074   1.408       .  A
C1073      H1078   1.082       .  S
C1074      C1075   1.411       .  A
C1075      C1076   1.406       .  A
C1075      F1079   1.357       .  S
C1076      H1080   1.082       .  S
C1081      C1082   1.409       .  A
C1081      C1086   1.401       .  A
C1081      H1091   1.082       .  S
C1082      C1087   1.493       .  S
C1082      C1083   1.408       .  A
C1083      C1084   1.397       .  A
C1083      F1088   1.357       .  S
C1084      C1085   1.407       .  A
C1084      H1089   1.082       .  S
C1085      C1086   1.408       .  A
C1086      F1090   1.357       .  S
C1087      C1092   1.410       .  A
C1087      C1096   1.410       .  A
C1092      C1093   1.398       .  A
C1092      F1097   1.357       .  S
C1093      C1094   1.403       .  A
C1093      H1098   1.083       .  S
C1094      C1095   1.404       .  A
C1095      C1096   1.402       .  A
C1095      F1099   1.357       .  S
C1096      H1100   1.081       .  S
C1101      C1102   1.402       .  A
C1101      C1106   1.397       .  A
C1101      H1111   1.083       .  S
C1102      C1107   1.479       .  S
C1102      C1103   1.408       .  A
C1103      C1104   1.399   1_545  A
C1103      F1108   1.358   1_545  S
C1104      C1105   1.403       .  A
C1104      H1109   1.083       .  S
C1105      C1106   1.407   1_565  A
C1106      F1110   1.358       .  S
C1107      C1112   1.406       .  A
C1107      C1116   1.400       .  A
C1112      C1113   1.403       .  A
C1112      F1117   1.357       .  S
C1113      C1114   1.407       .  A
C1113      H1118   1.082       .  S
C1114      C1115   1.411       .  A
C1115      C1116   1.394       .  A
C1115      F1119   1.358       .  S
C1116      H1120   1.083       .  S
C1121      C1122   1.402       .  A
C1121      C1126   1.399       .  A
C1121      H1131   1.082       .  S
C1122      C1127   1.477       .  S
C1122      C1123   1.404       .  A
C1123      C1124   1.395       .  A
C1123      F1128   1.358       .  S
C1124      C1125   1.406       .  A
C1124      H1129   1.082       .  S
C1125      C1126   1.411       .  A
C1126      F1130   1.357       .  S
C1127      C1132   1.404       .  A
C1127      C1136   1.403       .  A
C1132      C1133   1.400       .  A
C1132      F1137   1.357       .  S
C1133      C1134   1.406       .  A
C1133      H1138   1.082       .  S
C1134      C1135   1.407       .  A
C1135      C1136   1.395       .  A
C1135      F1139   1.358   1_545  S
C1136      H1140   1.083       .  S
C1141      C1142   1.403       .  A
C1141      C1146   1.398       .  A
C1141      H1151   1.082       .  S
C1142      C1147   1.478       .  S
C1142      C1143   1.406       .  A
C1143      C1144   1.398       .  A
C1143      F1148   1.357       .  S
C1144      C1145   1.404       .  A
C1144      H1149   1.082       .  S
C1145      C1146   1.407       .  A
C1146      F1150   1.358       .  S
C1147      C1152   1.405       .  A
C1147      C1156   1.401       .  A
C1152      C1153   1.401       .  A
C1152      F1157   1.357       .  S
C1153      C1154   1.407       .  A
C1153      H1158   1.082       .  S
C1154      C1155   1.411       .  A
C1155      C1156   1.395       .  A
C1155      F1159   1.358       .  S
C1156      H1160   1.083       .  S
C1161      C1162   1.404       .  A
C1161      C1166   1.396       .  A
C1161      H1171   1.083       .  S
C1162      C1167   1.484       .  S
C1162      C1163   1.407       .  A
C1163      C1164   1.402       .  A
C1163      F1168   1.357       .  S
C1164      C1165   1.406       .  A
C1164      H1169   1.082       .  S
C1165      C1166   1.408       .  A
C1166      F1170   1.358       .  S
C1167      C1172   1.407       .  A
C1167      C1176   1.406       .  A
C1172      C1173   1.395       .  A
C1172      F1177   1.358       .  S
C1173      C1174   1.403       .  A
C1173      H1178   1.083       .  S
C1174      C1175   1.406       .  A
C1175      C1176   1.402       .  A
C1175      F1179   1.357       .  S
C1176      H1180   1.082       .  S
C1181      C1182   1.408       .  A
C1181      C1186   1.398       .  A
C1181      H1191   1.082       .  S
C1182      C1187   1.487       .  S
C1182      C1183   1.408       .  A
C1183      C1184   1.398       .  A
C1183      F1188   1.358       .  S
C1184      C1185   1.404       .  A
C1184      H1189   1.082       .  S
C1185      C1186   1.402       .  A
C1186      F1190   1.357       .  S
C1187      C1192   1.407       .  A
C1187      C1196   1.406       .  A
C1192      C1193   1.394       .  A
C1192      F1197   1.358       .  S
C1193      C1194   1.406       .  A
C1193      H1198   1.083       .  S
C1194      C1195   1.410       .  A
C1195      C1196   1.401       .  A
C1195      F1199   1.357       .  S
C1196      H1200   1.083       .  S
C1201      C1202   1.401       .  A
C1201      C1206   1.394       .  A
C1201      H1211   1.083       .  S
C1202      C1207   1.479       .  S
C1202      C1203   1.405       .  A
C1203      C1204   1.403       .  A
C1203      F1208   1.357       .  S
C1204      C1205   1.407       .  A
C1204      H1209   1.082       .  S
C1205      C1206   1.410       .  A
C1206      F1210   1.358       .  S
C1207      C1212   1.406       .  A
C1207      C1216   1.402       .  A
C1212      C1213   1.401   1_565  A
C1212      F1217   1.357       .  S
C1213      C1214   1.406       .  A
C1213      H1218   1.082       .  S
C1214      C1215   1.410   1_545  A
C1215      C1216   1.397       .  A
C1215      F1219   1.358   1_554  S
C1216      H1220   1.083       .  S
C1221      C1222   1.405       .  A
C1221      C1226   1.398       .  A
C1221      H1231   1.082       .  S
C1222      C1227   1.496       .  S
C1222      C1223   1.411       .  A
C1223      C1224   1.402       .  A
C1223      F1228   1.357       .  S
C1224      C1225   1.406       .  A
C1224      H1229   1.082       .  S
C1225      C1226   1.411       .  A
C1226      F1230   1.357       .  S
C1227      C1232   1.413       .  A
C1227      C1236   1.407       .  A
C1232      C1233   1.403       .  A
C1232      F1237   1.357       .  S
C1233      C1234   1.403       .  A
C1233      H1238   1.082       .  S
C1234      C1235   1.405       .  A
C1235      C1236   1.397       .  A
C1235      F1239   1.358       .  S
C1236      H1240   1.081       .  S
C1241      C1242   1.402       .  A
C1241      C1246   1.398       .  A
C1241      H1251   1.082       .  S
C1242      C1247   1.479       .  S
C1242      C1243   1.403       .  A
C1243      C1244   1.400       .  A
C1243      F1248   1.357       .  S
C1244      C1245   1.409       .  A
C1244      H1249   1.082       .  S
C1245      C1246   1.411       .  A
C1246      F1250   1.357       .  S
C1247      C1252   1.404       .  A
C1247      C1256   1.403       .  A
C1252      C1253   1.396       .  A
C1252      F1257   1.358       .  S
C1253      C1254   1.407       .  A
C1253      H1258   1.082   1_554  S
C1254      C1255   1.409       .  A
C1255      C1256   1.401       .  A
C1255      F1259   1.357       .  S
C1256      H1260   1.082       .  S
C1261      C1262   1.404       .  A
C1261      C1266   1.393       .  A
C1261      H1271   1.083       .  S
C1262      C1267   1.481       .  S
C1262      C1263   1.406       .  A
C1263      C1264   1.404       .  A
C1263      F1268   1.357       .  S
C1264      C1265   1.407       .  A
C1264      H1269   1.083       .  S
C1265      C1266   1.405       .  A
C1266      F1270   1.358       .  S
C1267      C1272   1.406       .  A
C1267      C1276   1.406       .  A
C1272      C1273   1.392       .  A
C1272      F1277   1.358       .  S
C1273      C1274   1.402       .  A
C1273      H1278   1.084       .  S
C1274      C1275   1.408       .  A
C1275      C1276   1.404       .  A
C1275      F1279   1.357       .  S
C1276      H1280   1.083       .  S
C1281      C1282   1.411       .  A
C1281      C1286   1.404       .  A
C1281      H1291   1.081       .  S
C1282      C1287   1.496       .  S
C1282      C1283   1.410       .  A
C1283      C1284   1.397       .  A
C1283      F1288   1.357       .  S
C1284      C1285   1.403       .  A
C1284      H1289   1.082       .  S
C1285      C1286   1.405       .  A
C1286      F1290   1.357       .  S
C1287      C1292   1.408       .  A
C1287      C1296   1.409       .  A
C1292      C1293   1.398       .  A
C1292      F1297   1.357       .  S
C1293      C1294   1.408       .  A
C1293      H1298   1.083   1_554  S
C1294      C1295   1.408       .  A
C1295      C1296   1.402       .  A
C1295      F1299   1.357       .  S
C1296      H1300   1.082       .  S
C1301      C1302   1.400       .  A
C1301      C1306   1.395       .  A
C1301      H1311   1.083       .  S
C1302      C1307   1.477       .  S
C1302      C1303   1.404       .  A
C1303      C1304   1.404       .  A
C1303      F1308   1.357       .  S
C1304      C1305   1.410       .  A
C1304      H1309   1.083       .  S
C1305      C1306   1.412       .  A
C1306      F1310   1.357       .  S
C1307      C1312   1.405       .  A
C1307      C1316   1.402       .  A
C1312      C1313   1.399       .  A
C1312      F1317   1.357       .  S
C1313      C1314   1.404       .  A
C1313      H1318   1.083       .  S
C1314      C1315   1.410       .  A
C1315      C1316   1.400       .  A
C1315      F1319   1.358       .  S
C1316      H1320   1.083       .  S
C1321      C1322   1.402       .  A
C1321      C1326   1.391       .  A
C1321      H1331   1.082       .  S
C1322      C1327   1.486       .  S
C1322      C1323   1.410       .  A
C1323      C1324   1.405       .  A
C1323      F1328   1.357       .  S
C1324      C1325   1.405       .  A
C1324      H1329   1.082       .  S
C1325      C1326   1.409       .  A
C1326      F1330   1.358       .  S
C1327      C1332   1.409       .  A
C1327      C1336   1.405       .  A
C1332      C1333   1.397       .  A
C1332      F1337   1.358       .  S
C1333      C1334   1.404       .  A
C1333      H1338   1.082       .  S
C1334      C1335   1.408       .  A
C1335      C1336   1.400       .  A
C1335      F1339   1.357       .  S
C1336      H1340   1.082       .  S
C1341      C1342   1.402       .  A
C1341      C1346   1.398       .  A
C1341      H1351   1.083       .  S
C1342      C1347   1.477       .  S
C1342      C1343   1.405       .  A
C1343      C1344   1.397   1_554  A
C1343      F1348   1.358   1_554  S
C1344      C1345   1.405       .  A
C1344      H1349   1.083       .  S
C1345      C1346   1.408   1_556  A
C1346      F1350   1.358       .  S
C1347      C1352   1.405       .  A
C1347      C1356   1.401       .  A
C1352      C1353   1.402       .  A
C1352      F1357   1.357       .  S
C1353      C1354   1.407       .  A
C1353      H1358   1.082       .  S
C1354      C1355   1.410       .  A
C1355      C1356   1.393       .  A
C1355      F1359   1.358       .  S
C1356      H1360   1.083       .  S
C1361      C1362   1.403       .  A
C1361      C1366   1.401       .  A
C1361      H1371   1.083       .  S
C1362      C1367   1.481       .  S
C1362      C1363   1.404       .  A
C1363      C1364   1.397       .  A
C1363      F1368   1.358       .  S
C1364      C1365   1.407       .  A
C1364      H1369   1.082       .  S
C1365      C1366   1.411       .  A
C1366      F1370   1.357       .  S
C1367      C1372   1.405       .  A
C1367      C1376   1.402       .  A
C1372      C1373   1.402   1_554  A
C1372      F1377   1.357       .  S
C1373      C1374   1.408       .  A
C1373      H1378   1.082       .  S
C1374      C1375   1.410   1_556  A
C1375      C1376   1.396       .  A
C1375      F1379   1.358       .  S
C1376      H1380   1.083       .  S
C1381      C1382   1.406       .  A
C1381      C1386   1.396       .  A
C1381      H1391   1.082       .  S
C1382      C1387   1.495       .  S
C1382      C1383   1.413       .  A
C1383      C1384   1.405       .  A
C1383      F1388   1.357       .  S
C1384      C1385   1.403       .  A
C1384      H1389   1.083       .  S
C1385      C1386   1.405       .  A
C1386      F1390   1.358       .  S
C1387      C1392   1.411       .  A
C1387      C1396   1.406       .  A
C1392      C1393   1.400       .  A
C1392      F1397   1.357       .  S
C1393      C1394   1.405       .  A
C1393      H1398   1.083       .  S
C1394      C1395   1.410       .  A
C1395      C1396   1.400       .  A
C1395      F1399   1.358       .  S
C1396      H1400   1.082       .  S
C1401      C1402   1.404       .  A
C1401      C1406   1.394       .  A
C1401      H1411   1.083       .  S
C1402      C1407   1.485       .  S
C1402      C1403   1.408       .  A
C1403      C1404   1.403       .  A
C1403      F1408   1.357       .  S
C1404      C1405   1.405       .  A
C1404      H1409   1.082       .  S
C1405      C1406   1.406       .  A
C1406      F1410   1.358       .  S
C1407      C1412   1.408       .  A
C1407      C1416   1.406       .  A
C1412      C1413   1.395       .  A
C1412      F1417   1.358       .  S
C1413      C1414   1.403       .  A
C1413      H1418   1.083       .  S
C1414      C1415   1.407       .  A
C1415      C1416   1.402       .  A
C1415      F1419   1.357       .  S
C1416      H1420   1.083       .  S
C1421      C1422   1.403       .  A
C1421      C1426   1.394       .  A
C1421      H1431   1.082       .  S
C1422      C1427   1.485       .  S
C1422      C1423   1.408       .  A
C1423      C1424   1.404       .  A
C1423      F1428   1.357       .  S
C1424      C1425   1.407       .  A
C1424      H1429   1.082       .  S
C1425      C1426   1.407       .  A
C1426      F1430   1.358       .  S
C1427      C1432   1.408       .  A
C1427      C1436   1.404       .  A
C1432      C1433   1.401       .  A
C1432      F1437   1.357       .  S
C1433      C1434   1.406       .  A
C1433      H1438   1.083       .  S
C1434      C1435   1.408       .  A
C1435      C1436   1.397       .  A
C1435      F1439   1.358       .  S
C1436      H1440   1.083       .  S
C1441      C1442   1.404       .  A
C1441      C1446   1.395       .  A
C1441      H1451   1.082       .  S
C1442      C1447   1.488       .  S
C1442      C1443   1.408       .  A
C1443      C1444   1.402       .  A
C1443      F1448   1.358       .  S
C1444      C1445   1.409       .  A
C1444      H1449   1.082       .  S
C1445      C1446   1.410       .  A
C1446      F1450   1.357       .  S
C1447      C1452   1.410       .  A
C1447      C1456   1.407       .  A
C1452      C1453   1.399       .  A
C1452      F1457   1.357       .  S
C1453      C1454   1.402       .  A
C1453      H1458   1.083       .  S
C1454      C1455   1.403       .  A
C1455      C1456   1.398       .  A
C1455      F1459   1.357       .  S
C1456      H1460   1.083       .  S
C1461      C1462   1.406       .  A
C1461      C1466   1.396       .  A
C1461      H1471   1.082       .  S
C1462      C1467   1.492       .  S
C1462      C1463   1.413       .  A
C1463      C1464   1.404       .  A
C1463      F1468   1.357       .  S
C1464      C1465   1.402       .  A
C1464      H1469   1.083       .  S
C1465      C1466   1.404       .  A
C1466      F1470   1.358       .  S
C1467      C1472   1.410       .  A
C1467      C1476   1.405       .  A
C1472      C1473   1.399       .  A
C1472      F1477   1.357       .  S
C1473      C1474   1.405       .  A
C1473      H1478   1.083       .  S
C1474      C1475   1.411       .  A
C1475      C1476   1.399       .  A
C1475      F1479   1.358       .  S
C1476      H1480   1.082       .  S
C1481      C1482   1.401       .  A
C1481      C1486   1.396       .  A
C1481      H1491   1.083       .  S
C1482      C1487   1.475       .  S
C1482      C1483   1.403       .  A
C1483      C1484   1.399       .  A
C1483      F1488   1.357       .  S
C1484      C1485   1.407       .  A
C1484      H1489   1.083       .  S
C1485      C1486   1.409       .  A
C1486      F1490   1.358       .  S
C1487      C1492   1.402       .  A
C1487      C1496   1.401       .  A
C1492      C1493   1.396       .  A
C1492      F1497   1.358       .  S
C1493      C1494   1.407       .  A
C1493      H1498   1.082       .  S
C1494      C1495   1.413       .  A
C1495      C1496   1.401       .  A
C1495      F1499   1.357       .  S
C1496      H1500   1.082       .  S
C1501      C1502   1.402       .  A
C1501      C1506   1.397       .  A
C1501      H1511   1.083       .  S
C1502      C1507   1.485       .  S
C1502      C1503   1.409       .  A
C1503      C1504   1.402       .  A
C1503      F1508   1.357       .  S
C1504      C1505   1.405       .  A
C1504      H1509   1.083       .  S
C1505      C1506   1.411       .  A
C1506      F1510   1.358       .  S
C1507      C1512   1.409       .  A
C1507      C1516   1.402       .  A
C1512      C1513   1.404       .  A
C1512      F1517   1.357       .  S
C1513      C1514   1.405       .  A
C1513      H1518   1.082       .  S
C1514      C1515   1.409       .  A
C1515      C1516   1.396       .  A
C1515      F1519   1.358       .  S
C1516      H1520   1.083       .  S
C1521      C1522   1.399       .  A
C1521      C1526   1.399       .  A
C1521      H1531   1.083       .  S
C1522      C1527   1.471       .  S
C1522      C1523   1.402       .  A
C1523      C1524   1.397       .  A
C1523      F1528   1.357       .  S
C1524      C1525   1.407       .  A
C1524      H1529   1.082       .  S
C1525      C1526   1.414       .  A
C1526      F1530   1.357       .  S
C1527      C1532   1.403       .  A
C1527      C1536   1.399       .  A
C1532      C1533   1.401       .  A
C1532      F1537   1.357       .  S
C1533      C1534   1.408       .  A
C1533      H1538   1.082       .  S
C1534      C1535   1.410       .  A
C1535      C1536   1.394       .  A
C1535      F1539   1.358       .  S
C1536      H1540   1.083       .  S
C1541      C1542   1.404       .  A
C1541      C1546   1.403       .  A
C1541      H1551   1.083       .  S
C1542      C1547   1.480       .  S
C1542      C1543   1.403       .  A
C1543      C1544   1.395       .  A
C1543      F1548   1.358       .  S
C1544      C1545   1.409       .  A
C1544      H1549   1.083       .  S
C1545      C1546   1.411       .  A
C1546      F1550   1.357       .  S
C1547      C1552   1.404       .  A
C1547      C1556   1.405       .  A
C1552      C1553   1.398       .  A
C1552      F1557   1.357       .  S
C1553      C1554   1.406       .  A
C1553      H1558   1.082       .  S
C1554      C1555   1.406       .  A
C1555      C1556   1.400       .  A
C1555      F1559   1.357       .  S
C1556      H1560   1.082       .  S
C1561      C1562   1.403       .  A
C1561      C1566   1.404       .  A
C1561      H1571   1.083       .  S
C1562      C1567   1.481       .  S
C1562      C1563   1.403       .  A
C1563      C1564   1.397       .  A
C1563      F1568   1.358       .  S
C1564      C1565   1.410       .  A
C1564      H1569   1.082       .  S
C1565      C1566   1.412       .  A
C1566      F1570   1.357       .  S
C1567      C1572   1.404       .  A
C1567      C1576   1.405       .  A
C1572      C1573   1.399       .  A
C1572      F1577   1.357       .  S
C1573      C1574   1.406       .  A
C1573      H1578   1.083       .  S
C1574      C1575   1.406       .  A
C1575      C1576   1.402       .  A
C1575      F1579   1.357       .  S
C1576      H1580   1.082       .  S
C1581      C1582   1.401       .  A
C1581      C1586   1.394       .  A
C1581      H1591   1.083       .  S
C1582      C1587   1.481       .  S
C1582      C1583   1.407       .  A
C1583      C1584   1.401       .  A
C1583      F1588   1.357       .  S
C1584      C1585   1.406       .  A
C1584      H1589   1.082       .  S
C1585      C1586   1.411       .  A
C1586      F1590   1.358       .  S
C1587      C1592   1.408       .  A
C1587      C1596   1.403       .  A
C1592      C1593   1.400       .  A
C1592      F1597   1.358       .  S
C1593      C1594   1.404       .  A
C1593      H1598   1.082       .  S
C1594      C1595   1.407       .  A
C1595      C1596   1.396       .  A
C1595      F1599   1.358       .  S
C1596      H1600   1.082       .  S
C1601      C1602   1.402       .  A
C1601      C1606   1.399       .  A
C1601      H1611   1.082       .  S
C1602      C1607   1.477       .  S
C1602      C1603   1.404       .  A
C1603      C1604   1.396       .  A
C1603      F1608   1.358       .  S
C1604      C1605   1.407       .  A
C1604      H1609   1.082       .  S
C1605      C1606   1.411       .  A
C1606      F1610   1.357       .  S
C1607      C1612   1.404       .  A
C1607      C1616   1.402       .  A
C1612      C1613   1.400       .  A
C1612      F1617   1.357       .  S
C1613      C1614   1.407       .  A
C1613      H1618   1.082       .  S
C1614      C1615   1.410       .  A
C1615      C1616   1.395       .  A
C1615      F1619   1.358       .  S
C1616      H1620   1.083       .  S
C1621      C1622   1.405   1_565  A
C1621      C1626   1.404       .  A
C1621      H1631   1.082       .  S
C1622      C1627   1.482       .  S
C1622      C1623   1.403       .  A
C1623      C1624   1.394       .  A
C1623      F1628   1.358       .  S
C1624      C1625   1.407   1_545  A
C1624      H1629   1.082       .  S
C1625      C1626   1.411       .  A
C1626      F1630   1.357       .  S
C1627      C1632   1.403       .  A
C1627      C1636   1.404       .  A
C1632      C1633   1.400       .  A
C1632      F1637   1.357       .  S
C1633      C1634   1.410       .  A
C1633      H1638   1.082       .  S
C1634      C1635   1.410       .  A
C1635      C1636   1.399       .  A
C1635      F1639   1.357       .  S
C1636      H1640   1.082       .  S
C1641      C1642   1.407       .  A
C1641      C1646   1.405       .  A
C1641      H1651   1.083       .  S
C1642      C1647   1.485       .  S
C1642      C1643   1.405       .  A
C1643      C1644   1.394       .  A
C1643      F1648   1.358       .  S
C1644      C1645   1.405       .  A
C1644      H1649   1.083       .  S
C1645      C1646   1.408       .  A
C1646      F1650   1.357       .  S
C1647      C1652   1.405       .  A
C1647      C1656   1.405       .  A
C1652      C1653   1.399       .  A
C1652      F1657   1.358       .  S
C1653      C1654   1.410       .  A
C1653      H1658   1.082       .  S
C1654      C1655   1.409       .  A
C1655      C1656   1.399       .  A
C1655      F1659   1.357       .  S
C1656      H1660   1.082       .  S
C1661      C1662   1.406       .  A
C1661      C1666   1.401       .  A
C1661      H1671   1.083       .  S
C1662      C1667   1.489       .  S
C1662      C1663   1.408       .  A
C1663      C1664   1.397       .  A
C1663      F1668   1.358       .  S
C1664      C1665   1.407       .  A
C1664      H1669   1.083       .  S
C1665      C1666   1.409       .  A
C1666      F1670   1.357       .  S
C1667      C1672   1.409       .  A
C1667      C1676   1.407       .  A
C1672      C1673   1.400       .  A
C1672      F1677   1.358       .  S
C1673      C1674   1.403       .  A
C1673      H1678   1.083       .  S
C1674      C1675   1.403       .  A
C1675      C1676   1.399       .  A
C1675      F1679   1.357       .  S
C1676      H1680   1.083       .  S
C1681      C1682   1.403       .  A
C1681      C1686   1.394       .  A
C1681      H1691   1.082       .  S
C1682      C1687   1.484       .  S
C1682      C1683   1.408       .  A
C1683      C1684   1.404       .  A
C1683      F1688   1.357       .  S
C1684      C1685   1.406       .  A
C1684      H1689   1.082       .  S
C1685      C1686   1.406       .  A
C1686      F1690   1.358       .  S
C1687      C1692   1.408       .  A
C1687      C1696   1.404       .  A
C1692      C1693   1.396       .  A
C1692      F1697   1.358       .  S
C1693      C1694   1.404       .  A
C1693      H1698   1.082       .  S
C1694      C1695   1.409       .  A
C1695      C1696   1.401       .  A
C1695      F1699   1.357       .  S
C1696      H1700   1.082       .  S
C1701      C1702   1.404       .  A
C1701      C1706   1.401       .  A
C1701      H1711   1.082       .  S
C1702      C1707   1.482       .  S
C1702      C1703   1.403       .  A
C1703      C1704   1.398       .  A
C1703      F1708   1.357       .  S
C1704      C1705   1.409       .  A
C1704      H1709   1.082       .  S
C1705      C1706   1.412       .  A
C1706      F1710   1.357       .  S
C1707      C1712   1.404       .  A
C1707      C1716   1.404       .  A
C1712      C1713   1.397       .  A
C1712      F1717   1.358       .  S
C1713      C1714   1.408       .  A
C1713      H1718   1.082       .  S
C1714      C1715   1.409       .  A
C1715      C1716   1.401       .  A
C1715      F1719   1.357       .  S
C1716      H1720   1.082       .  S
C1721      C1722   1.404       .  A
C1721      C1726   1.398       .  A
C1721      H1731   1.083       .  S
C1722      C1727   1.489       .  S
C1722      C1723   1.409       .  A
C1723      C1724   1.399       .  A
C1723      F1728   1.358       .  S
C1724      C1725   1.407       .  A
C1724      H1729   1.082       .  S
C1725      C1726   1.412       .  A
C1726      F1730   1.357       .  S
C1727      C1732   1.412       .  A
C1727      C1736   1.404       .  A
C1732      C1733   1.402       .  A
C1732      F1737   1.357       .  S
C1733      C1734   1.403       .  A
C1733      H1738   1.083       .  S
C1734      C1735   1.407       .  A
C1735      C1736   1.394       .  A
C1735      F1739   1.358       .  S
C1736      H1740   1.082       .  S
C1741      C1742   1.403       .  A
C1741      C1746   1.398       .  A
C1741      H1751   1.082       .  S
C1742      C1747   1.482       .  S
C1742      C1743   1.408       .  A
C1743      C1744   1.399   1_455  A
C1743      F1748   1.358   1_455  S
C1744      C1745   1.405       .  A
C1744      H1749   1.082       .  S
C1745      C1746   1.408   1_655  A
C1746      F1750   1.358       .  S
C1747      C1752   1.408       .  A
C1747      C1756   1.401       .  A
C1752      C1753   1.404       .  A
C1752      F1757   1.357       .  S
C1753      C1754   1.407       .  A
C1753      H1758   1.082       .  S
C1754      C1755   1.411       .  A
C1755      C1756   1.393       .  A
C1755      F1759   1.358       .  S
C1756      H1760   1.083       .  S
C1761      C1762   1.402       .  A
C1761      C1766   1.400       .  A
C1761      H1771   1.083       .  S
C1762      C1767   1.479       .  S
C1762      C1763   1.405       .  A
C1763      C1764   1.401       .  A
C1763      F1768   1.357       .  S
C1764      C1765   1.407       .  A
C1764      H1769   1.083       .  S
C1765      C1766   1.409       .  A
C1766      F1770   1.357       .  S
C1767      C1772   1.404       .  A
C1767      C1776   1.401       .  A
C1772      C1773   1.401       .  A
C1772      F1777   1.357       .  S
C1773      C1774   1.408       .  A
C1773      H1778   1.082       .  S
C1774      C1775   1.411       .  A
C1775      C1776   1.400       .  A
C1775      F1779   1.357       .  S
C1776      H1780   1.083       .  S
C1781      C1782   1.402       .  A
C1781      C1786   1.401       .  A
C1781      H1791   1.083       .  S
C1782      C1787   1.483       .  S
C1782      C1783   1.405       .  A
C1783      C1784   1.402       .  A
C1783      F1788   1.357       .  S
C1784      C1785   1.408       .  A
C1784      H1789   1.082       .  S
C1785      C1786   1.412       .  A
C1786      F1790   1.357       .  S
C1787      C1792   1.406       .  A
C1787      C1796   1.404       .  A
C1792      C1793   1.402       .  A
C1792      F1797   1.357       .  S
C1793      C1794   1.405       .  A
C1793      H1798   1.083       .  S
C1794      C1795   1.406       .  A
C1795      C1796   1.401       .  A
C1795      F1799   1.357       .  S
C1796      H1800   1.083       .  S
C1801      C1802   1.407       .  A
C1801      C1806   1.399       .  A
C1801      H1811   1.082       .  S
C1802      C1807   1.496       .  S
C1802      C1803   1.410       .  A
C1803      C1804   1.399       .  A
C1803      F1808   1.357       .  S
C1804      C1805   1.408       .  A
C1804      H1809   1.082       .  S
C1805      C1806   1.410       .  A
C1806      F1810   1.357       .  S
C1807      C1812   1.409       .  A
C1807      C1816   1.407       .  A
C1812      C1813   1.398       .  A
C1812      F1817   1.357       .  S
C1813      C1814   1.409       .  A
C1813      H1818   1.081       .  S
C1814      C1815   1.413       .  A
C1815      C1816   1.400       .  A
C1815      F1819   1.357       .  S
C1816      H1820   1.081       .  S
C1821      C1822   1.406       .  A
C1821      C1826   1.398       .  A
C1821      H1831   1.082       .  S
C1822      C1827   1.497       .  S
C1822      C1823   1.410       .  A
C1823      C1824   1.399       .  A
C1823      F1828   1.357       .  S
C1824      C1825   1.409       .  A
C1824      H1829   1.081       .  S
C1825      C1826   1.414       .  A
C1826      F1830   1.357       .  S
C1827      C1832   1.412       .  A
C1827      C1836   1.407       .  A
C1832      C1833   1.399       .  A
C1832      F1837   1.357       .  S
C1833      C1834   1.407       .  A
C1833      H1838   1.083       .  S
C1834      C1835   1.409       .  A
C1835      C1836   1.397       .  A
C1835      F1839   1.357       .  S
C1836      H1840   1.082       .  S
C1841      C1842   1.401       .  A
C1841      C1846   1.398       .  A
C1841      H1851   1.083       .  S
C1842      C1847   1.472       .  S
C1842      C1843   1.402       .  A
C1843      C1844   1.399       .  A
C1843      F1848   1.357       .  S
C1844      C1845   1.407       .  A
C1844      H1849   1.082       .  S
C1845      C1846   1.409       .  A
C1846      F1850   1.358       .  S
C1847      C1852   1.403       .  A
C1847      C1856   1.400       .  A
C1852      C1853   1.400       .  A
C1852      F1857   1.357       .  S
C1853      C1854   1.406       .  A
C1853      H1858   1.083       .  S
C1854      C1855   1.409       .  A
C1855      C1856   1.397       .  A
C1855      F1859   1.357       .  S
C1856      H1860   1.083       .  S
C1861      C1862   1.409       .  A
C1861      C1866   1.402       .  A
C1861      H1871   1.081       .  S
C1862      C1867   1.500       .  S
C1862      C1863   1.410       .  A
C1863      C1864   1.398       .  A
C1863      F1868   1.357       .  S
C1864      C1865   1.408       .  A
C1864      H1869   1.081       .  S
C1865      C1866   1.411       .  A
C1866      F1870   1.357       .  S
C1867      C1872   1.411       .  A
C1867      C1876   1.406       .  A
C1872      C1873   1.401       .  A
C1872      F1877   1.357       .  S
C1873      C1874   1.409       .  A
C1873      H1878   1.082       .  S
C1874      C1875   1.413       .  A
C1875      C1876   1.398       .  A
C1875      F1879   1.357       .  S
C1876      H1880   1.082       .  S
C1881      C1882   1.404       .  A
C1881      C1886   1.400       .  A
C1881      H1891   1.083       .  S
C1882      C1887   1.478       .  S
C1882      C1883   1.405       .  A
C1883      C1884   1.397       .  A
C1883      F1888   1.357       .  S
C1884      C1885   1.404       .  A
C1884      H1889   1.083       .  S
C1885      C1886   1.406       .  A
C1886      F1890   1.357       .  S
C1887      C1892   1.403       .  A
C1887      C1896   1.401       .  A
C1892      C1893   1.399       .  A
C1892      F1897   1.357       .  S
C1893      C1894   1.408       .  A
C1893      H1898   1.082       .  S
C1894      C1895   1.413       .  A
C1895      C1896   1.398       .  A
C1895      F1899   1.357       .  S
C1896      H1900   1.083       .  S
C1901      C1902   1.405       .  A
C1901      C1906   1.400       .  A
C1901      H1911   1.083       .  S
C1902      C1907   1.484       .  S
C1902      C1903   1.407   1_556  A
C1903      C1904   1.401       .  A
C1903      F1908   1.357       .  S
C1904      C1905   1.403   1_554  A
C1904      H1909   1.083       .  S
C1905      C1906   1.405       .  A
C1906      F1910   1.358       .  S
C1907      C1912   1.406       .  A
C1907      C1916   1.405   1_556  A
C1912      C1913   1.399       .  A
C1912      F1917   1.357       .  S
C1913      C1914   1.405       .  A
C1913      H1918   1.082       .  S
C1914      C1915   1.408   1_556  A
C1915      C1916   1.402       .  A
C1915      F1919   1.357       .  S
C1916      H1920   1.083       .  S
C1921      C1922   1.404   1_545  A
C1921      C1926   1.401       .  A
C1921      H1931   1.084       .  S
C1922      C1927   1.480       .  S
C1922      C1923   1.405       .  A
C1923      C1924   1.399       .  A
C1923      F1928   1.357       .  S
C1924      C1925   1.405       .  A
C1924      H1929   1.084       .  S
C1925      C1926   1.407   1_565  A
C1926      F1930   1.357       .  S
C1927      C1932   1.404   1_565  A
C1927      C1936   1.402       .  A
C1932      C1933   1.401       .  A
C1932      F1937   1.357       .  S
C1933      C1934   1.408   1_545  A
C1933      H1938   1.082       .  S
C1934      C1935   1.411       .  A
C1935      C1936   1.399       .  A
C1935      F1939   1.357       .  S
C1936      H1940   1.083       .  S
C1941      C1942   1.402       .  A
C1941      C1946   1.398       .  A
C1941      H1951   1.083       .  S
C1942      C1947   1.480       .  S
C1942      C1943   1.404   1_455  A
C1943      C1944   1.398       .  A
C1943      F1948   1.357       .  S
C1944      C1945   1.409   1_655  A
C1944      H1949   1.082       .  S
C1945      C1946   1.412       .  A
C1946      F1950   1.357       .  S
C1947      C1952   1.405       .  A
C1947      C1956   1.404       .  A
C1952      C1953   1.397       .  A
C1952      F1957   1.358       .  S
C1953      C1954   1.405       .  A
C1953      H1958   1.083       .  S
C1954      C1955   1.408       .  A
C1955      C1956   1.400       .  A
C1955      F1959   1.357       .  S
C1956      H1960   1.083       .  S
C1961      C1962   1.407       .  A
C1961      C1966   1.401       .  A
C1961      H1971   1.081       .  S
C1962      C1967   1.497       .  S
C1962      C1963   1.409       .  A
C1963      C1964   1.396       .  A
C1963      F1968   1.357       .  S
C1964      C1965   1.408       .  A
C1964      H1969   1.081       .  S
C1965      C1966   1.413       .  A
C1966      F1970   1.357       .  S
C1967      C1972   1.409       .  A
C1967      C1976   1.406       .  A
C1972      C1973   1.400       .  A
C1972      F1977   1.357       .  S
C1973      C1974   1.411       .  A
C1973      H1978   1.082       .  S
C1974      C1975   1.414       .  A
C1975      C1976   1.397       .  A
C1975      F1979   1.356       .  S
C1976      H1980   1.083       .  S
C1981      C1982   1.400       .  A
C1981      C1986   1.398       .  A
C1981      H1991   1.083       .  S
C1982      C1987   1.472       .  S
C1982      C1983   1.402       .  A
C1983      C1984   1.398       .  A
C1983      F1988   1.357       .  S
C1984      C1985   1.407       .  A
C1984      H1989   1.083       .  S
C1985      C1986   1.411       .  A
C1986      F1990   1.357       .  S
C1987      C1992   1.402       .  A
C1987      C1996   1.401       .  A
C1992      C1993   1.397       .  A
C1992      F1997   1.357       .  S
C1993      C1994   1.405       .  A
C1993      H1998   1.083       .  S
C1994      C1995   1.409       .  A
C1995      C1996   1.399       .  A
C1995      F1999   1.358       .  S
C1996      H2000   1.083       .  S
C2001      C2002   1.402   1_455  A
C2001      C2006   1.400       .  A
C2001      H2011   1.083       .  S
C2002      C2007   1.480       .  S
C2002      C2003   1.404       .  A
C2003      C2004   1.401       .  A
C2003      F2008   1.357       .  S
C2004      C2005   1.409       .  A
C2004      H2009   1.082       .  S
C2005      C2006   1.411   1_655  A
C2006      F2010   1.357       .  S
C2007      C2012   1.405       .  A
C2007      C2016   1.404   1_655  A
C2012      C2013   1.400       .  A
C2012      F2017   1.357       .  S
C2013      C2014   1.405       .  A
C2013      H2018   1.083       .  S
C2014      C2015   1.406   1_655  A
C2015      C2016   1.401       .  A
C2015      F2019   1.357       .  S
C2016      H2020   1.082       .  S
C2021      C2022   1.405       .  A
C2021      C2026   1.397       .  A
C2021      H2031   1.083       .  S
C2022      C2027   1.486       .  S
C2022      C2023   1.407       .  A
C2023      C2024   1.398       .  A
C2023      F2028   1.357       .  S
C2024      C2025   1.406       .  A
C2024      H2029   1.083       .  S
C2025      C2026   1.409       .  A
C2026      F2030   1.358       .  S
C2027      C2032   1.409       .  A
C2027      C2036   1.407       .  A
C2032      C2033   1.399       .  A
C2032      F2037   1.358       .  S
C2033      C2034   1.403   1_565  A
C2033      H2038   1.083       .  S
C2034      C2035   1.403       .  A
C2035      C2036   1.396   1_545  A
C2035      F2039   1.357       .  S
C2036      H2040   1.082       .  S
C2041      C2042   1.407       .  A
C2041      C2046   1.401       .  A
C2041      H2051   1.082       .  S
C2042      C2047   1.486       .  S
C2042      C2043   1.406       .  A
C2043      C2044   1.397       .  A
C2043      F2048   1.358       .  S
C2044      C2045   1.405       .  A
C2044      H2049   1.082   1_455  S
C2045      C2046   1.406       .  A
C2046      F2050   1.357       .  S
C2047      C2052   1.406       .  A
C2047      C2056   1.405       .  A
C2052      C2053   1.401       .  A
C2052      F2057   1.357       .  S
C2053      C2054   1.407       .  A
C2053      H2058   1.083       .  S
C2054      C2055   1.408       .  A
C2055      C2056   1.398       .  A
C2055      F2059   1.358       .  S
C2056      H2060   1.083       .  S
C2061      C2062   1.405       .  A
C2061      C2066   1.402       .  A
C2061      H2071   1.082       .  S
C2062      C2067   1.485       .  S
C2062      C2063   1.407       .  A
C2063      C2064   1.394       .  A
C2063      F2068   1.358       .  S
C2064      C2065   1.404       .  A
C2064      H2069   1.083       .  S
C2065      C2066   1.409       .  A
C2066      F2070   1.357       .  S
C2067      C2072   1.409       .  A
C2067      C2076   1.403       .  A
C2072      C2073   1.404       .  A
C2072      F2077   1.357       .  S
C2073      C2074   1.404       .  A
C2073      H2078   1.082       .  S
C2074      C2075   1.407       .  A
C2075      C2076   1.394       .  A
C2075      F2079   1.358       .  S
C2076      H2080   1.082       .  S
C2081      C2082   1.405       .  A
C2081      C2086   1.404       .  A
C2081      H2091   1.082       .  S
C2082      C2087   1.479       .  S
C2082      C2083   1.402       .  A
C2083      C2084   1.393       .  A
C2083      F2088   1.358       .  S
C2084      C2085   1.409       .  A
C2084      H2089   1.082       .  S
C2085      C2086   1.410       .  A
C2086      F2090   1.357       .  S
C2087      C2092   1.406       .  A
C2087      C2096   1.403       .  A
C2092      C2093   1.398       .  A
C2092      F2097   1.358       .  S
C2093      C2094   1.403       .  A
C2093      H2098   1.083       .  S
C2094      C2095   1.405       .  A
C2095      C2096   1.399       .  A
C2095      F2099   1.357       .  S
C2096      H2100   1.083       .  S
C2101      C2102   1.404       .  A
C2101      C2106   1.403       .  A
C2101      H2111   1.083       .  S
C2102      C2107   1.479       .  S
C2102      C2103   1.403       .  A
C2103      C2104   1.393       .  A
C2103      F2108   1.358       .  S
C2104      C2105   1.408       .  A
C2104      H2109   1.082       .  S
C2105      C2106   1.411       .  A
C2106      F2110   1.357       .  S
C2107      C2112   1.408       .  A
C2107      C2116   1.402       .  A
C2112      C2113   1.399       .  A
C2112      F2117   1.357       .  S
C2113      C2114   1.401       .  A
C2113      H2118   1.083       .  S
C2114      C2115   1.406       .  A
C2115      C2116   1.398       .  A
C2115      F2119   1.358       .  S
C2116      H2120   1.083       .  S
C2121      C2122   1.402       .  A
C2121      C2126   1.399       .  A
C2121      H2131   1.082       .  S
C2122      C2127   1.475       .  S
C2122      C2123   1.404       .  A
C2123      C2124   1.394       .  A
C2123      F2128   1.358       .  S
C2124      C2125   1.405       .  A
C2124      H2129   1.082       .  S
C2125      C2126   1.410       .  A
C2126      F2130   1.358       .  S
C2127      C2132   1.404       .  A
C2127      C2136   1.402       .  A
C2132      C2133   1.394       .  A
C2132      F2137   1.358       .  S
C2133      C2134   1.405       .  A
C2133      H2138   1.083       .  S
C2134      C2135   1.410   1_565  A
C2135      C2136   1.400   1_545  A
C2135      F2139   1.357       .  S
C2136      H2140   1.083       .  S
C2141      C2142   1.406       .  A
C2141      C2146   1.398       .  A
C2141      H2151   1.082       .  S
C2142      C2147   1.489       .  S
C2142      C2143   1.408       .  A
C2143      C2144   1.399       .  A
C2143      F2148   1.357       .  S
C2144      C2145   1.407       .  A
C2144      H2149   1.083       .  S
C2145      C2146   1.408       .  A
C2146      F2150   1.357       .  S
C2147      C2152   1.409       .  A
C2147      C2156   1.407       .  A
C2152      C2153   1.399       .  A
C2152      F2157   1.357       .  S
C2153      C2154   1.404       .  A
C2153      H2158   1.082       .  S
C2154      C2155   1.405       .  A
C2155      C2156   1.399       .  A
C2155      F2159   1.358       .  S
C2156      H2160   1.082       .  S
C2161      C2162   1.404       .  A
C2161      C2166   1.396       .  A
C2161      H2171   1.082       .  S
C2162      C2167   1.483       .  S
C2162      C2163   1.410       .  A
C2163      C2164   1.401       .  A
C2163      F2168   1.357       .  S
C2164      C2165   1.400       .  A
C2164      H2169   1.082       .  S
C2165      C2166   1.403       .  A
C2166      F2170   1.358       .  S
C2167      C2172   1.409       .  A
C2167      C2176   1.406       .  A
C2172      C2173   1.396       .  A
C2172      F2177   1.358       .  S
C2173      C2174   1.401       .  A
C2173      H2178   1.083       .  S
C2174      C2175   1.403       .  A
C2175      C2176   1.400       .  A
C2175      F2179   1.357       .  S
C2176      H2180   1.082       .  S
C2181      C2182   1.409       .  A
C2181      C2186   1.405       .  A
C2181      H2191   1.082       .  S
C2182      C2187   1.487       .  S
C2182      C2183   1.406       .  A
C2183      C2184   1.393       .  A
C2183      F2188   1.358       .  S
C2184      C2185   1.403       .  A
C2184      H2189   1.082       .  S
C2185      C2186   1.405       .  A
C2186      F2190   1.357       .  S
C2187      C2192   1.408       .  A
C2187      C2196   1.405       .  A
C2192      C2193   1.404       .  A
C2192      F2197   1.357       .  S
C2193      C2194   1.406       .  A
C2193      H2198   1.083       .  S
C2194      C2195   1.406       .  A
C2195      C2196   1.394       .  A
C2195      F2199   1.358       .  S
C2196      H2200   1.083       .  S
C2201      C2202   1.409   1_655  A
C2201      C2206   1.403       .  A
C2201      H2211   1.082       .  S
C2202      C2207   1.498       .  S
C2202      C2203   1.409       .  A
C2203      C2204   1.394       .  A
C2203      F2208   1.357       .  S
C2204      C2205   1.408       .  A
C2204      H2209   1.081       .  S
C2205      C2206   1.413   1_455  A
C2206      F2210   1.357       .  S
C2207      C2212   1.410       .  A
C2207      C2216   1.406   1_455  A
C2212      C2213   1.401       .  A
C2212      F2217   1.357       .  S
C2213      C2214   1.409       .  A
C2213      H2218   1.082       .  S
C2214      C2215   1.412       .  A
C2215      C2216   1.396   1_455  A
C2215      F2219   1.357       .  S
C2216      H2220   1.082       .  S
C2221      C2222   1.407       .  A
C2221      C2226   1.403       .  A
C2221      H2231   1.083       .  S
C2222      C2227   1.484       .  S
C2222      C2223   1.405       .  A
C2223      C2224   1.394       .  A
C2223      F2228   1.358       .  S
C2224      C2225   1.406       .  A
C2224      H2229   1.083       .  S
C2225      C2226   1.407       .  A
C2226      F2230   1.357       .  S
C2227      C2232   1.408       .  A
C2227      C2236   1.404       .  A
C2232      C2233   1.399       .  A
C2232      F2237   1.358       .  S
C2233      C2234   1.405       .  A
C2233      H2238   1.083       .  S
C2234      C2235   1.407       .  A
C2235      C2236   1.398       .  A
C2235      F2239   1.357       .  S
C2236      H2240   1.083       .  S
C2241      C2242   1.403   1_455  A
C2241      C2246   1.400       .  A
C2241      H2251   1.083       .  S
C2242      C2247   1.483       .  S
C2242      C2243   1.404       .  A
C2243      C2244   1.400       .  A
C2243      F2248   1.357       .  S
C2244      C2245   1.408       .  A
C2244      H2249   1.083       .  S
C2245      C2246   1.411   1_655  A
C2246      F2250   1.357       .  S
C2247      C2252   1.407   1_655  A
C2247      C2256   1.404       .  A
C2252      C2253   1.401       .  A
C2252      F2257   1.357       .  S
C2253      C2254   1.403   1_455  A
C2253      H2258   1.083       .  S
C2254      C2255   1.406       .  A
C2255      C2256   1.401       .  A
C2255      F2259   1.357       .  S
C2256      H2260   1.083       .  S
C2261      C2262   1.406       .  A
C2261      C2266   1.401       .  A
C2261      H2271   1.083       .  S
C2262      C2267   1.487       .  S
C2262      C2263   1.406       .  A
C2263      C2264   1.398       .  A
C2263      F2268   1.357       .  S
C2264      C2265   1.407       .  A
C2264      H2269   1.083       .  S
C2265      C2266   1.410       .  A
C2266      F2270   1.357       .  S
C2267      C2272   1.408       .  A
C2267      C2276   1.407       .  A
C2272      C2273   1.400       .  A
C2272      F2277   1.358       .  S
C2273      C2274   1.405   1_554  A
C2273      H2278   1.083   1_455  S
C2274      C2275   1.403       .  A
C2275      C2276   1.399   1_556  A
C2275      F2279   1.357       .  S
C2276      H2280   1.082       .  S
C2281      C2282   1.403       .  A
C2281      C2286   1.401       .  A
C2281      H2291   1.084       .  S
C2282      C2287   1.477       .  S
C2282      C2283   1.404       .  A
C2283      C2284   1.398       .  A
C2283      F2288   1.357       .  S
C2284      C2285   1.405       .  A
C2284      H2289   1.084       .  S
C2285      C2286   1.407       .  A
C2286      F2290   1.357       .  S
C2287      C2292   1.403       .  A
C2287      C2296   1.402   1_565  A
C2292      C2293   1.400       .  A
C2292      F2297   1.357       .  S
C2293      C2294   1.407       .  A
C2293      H2298   1.083       .  S
C2294      C2295   1.410   1_565  A
C2295      C2296   1.399       .  A
C2295      F2299   1.357       .  S
C2296      H2300   1.083       .  S
C2301      C2302   1.409       .  A
C2301      C2306   1.405       .  A
C2301      H2311   1.081       .  S
C2302      C2307   1.491       .  S
C2302      C2303   1.408       .  A
C2303      C2304   1.395       .  A
C2303      F2308   1.358       .  S
C2304      C2305   1.404       .  A
C2304      H2309   1.082       .  S
C2305      C2306   1.406       .  A
C2306      F2310   1.357       .  S
C2307      C2312   1.409       .  A
C2307      C2316   1.407       .  A
C2312      C2313   1.404       .  A
C2312      F2317   1.357       .  S
C2313      C2314   1.406       .  A
C2313      H2318   1.082       .  S
C2314      C2315   1.405       .  A
C2315      C2316   1.395       .  A
C2315      F2319   1.358       .  S
C2316      H2320   1.082       .  S
C2321      C2322   1.409       .  A
C2321      C2326   1.406       .  A
C2321      H2331   1.081       .  S
C2322      C2327   1.488       .  S
C2322      C2323   1.405       .  A
C2323      C2324   1.393       .  A
C2323      F2328   1.358       .  S
C2324      C2325   1.405       .  A
C2324      H2329   1.082       .  S
C2325      C2326   1.407       .  A
C2326      F2330   1.357       .  S
C2327      C2332   1.407       .  A
C2327      C2336   1.405       .  A
C2332      C2333   1.403       .  A
C2332      F2337   1.357       .  S
C2333      C2334   1.408       .  A
C2333      H2338   1.082       .  S
C2334      C2335   1.407       .  A
C2335      C2336   1.396       .  A
C2335      F2339   1.358   1_545  S
C2336      H2340   1.082       .  S
C2341      C2342   1.404       .  A
C2341      C2346   1.400       .  A
C2341      H2351   1.083       .  S
C2342      C2347   1.482       .  S
C2342      C2343   1.407   1_556  A
C2343      C2344   1.400       .  A
C2343      F2348   1.357       .  S
C2344      C2345   1.403   1_554  A
C2344      H2349   1.083       .  S
C2345      C2346   1.406       .  A
C2346      F2350   1.357       .  S
C2347      C2352   1.405   1_556  A
C2347      C2356   1.404       .  A
C2352      C2353   1.399       .  A
C2352      F2357   1.357       .  S
C2353      C2354   1.407   1_554  A
C2353      H2358   1.082       .  S
C2354      C2355   1.410       .  A
C2355      C2356   1.401       .  A
C2355      F2359   1.357       .  S
C2356      H2360   1.082       .  S
C2361      C2362   1.405       .  A
C2361      C2366   1.396       .  A
C2361      H2371   1.082       .  S
C2362      C2367   1.487       .  S
C2362      C2363   1.410   1_545  A
C2363      C2364   1.400       .  A
C2363      F2368   1.357       .  S
C2364      C2365   1.403       .  A
C2364      H2369   1.082       .  S
C2365      C2366   1.407   1_565  A
C2366      F2370   1.358   1_554  S
C2367      C2372   1.409       .  A
C2367      C2376   1.404       .  A
C2372      C2373   1.397       .  A
C2372      F2377   1.358       .  S
C2373      C2374   1.404       .  A
C2373      H2378   1.083       .  S
C2374      C2375   1.409       .  A
C2375      C2376   1.399       .  A
C2375      F2379   1.357       .  S
C2376      H2380   1.083       .  S
C2381      C2382   1.407       .  A
C2381      C2386   1.400       .  A
C2381      H2391   1.081       .  S
C2382      C2387   1.504       .  S
C2382      C2383   1.412       .  A
C2383      C2384   1.401       .  A
C2383      F2388   1.357   1_556  S
C2384      C2385   1.410       .  A
C2384      H2389   1.080       .  S
C2385      C2386   1.415       .  A
C2386      F2390   1.357       .  S
C2387      C2392   1.412   1_556  A
C2387      C2396   1.408       .  A
C2392      C2393   1.401       .  A
C2392      F2397   1.357       .  S
C2393      C2394   1.410   1_554  A
C2393      H2398   1.081       .  S
C2394      C2395   1.413       .  A
C2395      C2396   1.401       .  A
C2395      F2399   1.356       .  S
C2396      H2400   1.081       .  S
C2401      C2402   1.408       .  A
C2401      C2406   1.405       .  A
C2401      H2411   1.082       .  S
C2402      C2407   1.486       .  S
C2402      C2403   1.406       .  A
C2403      C2404   1.394       .  A
C2403      F2408   1.358       .  S
C2404      C2405   1.404       .  A
C2404      H2409   1.083       .  S
C2405      C2406   1.405       .  A
C2406      F2410   1.357       .  S
C2407      C2412   1.407       .  A
C2407      C2416   1.404       .  A
C2412      C2413   1.405       .  A
C2412      F2417   1.357       .  S
C2413      C2414   1.408       .  A
C2413      H2418   1.082       .  S
C2414      C2415   1.407       .  A
C2415      C2416   1.394       .  A
C2415      F2419   1.358       .  S
C2416      H2420   1.083       .  S
C2421      C2422   1.407   1_545  A
C2421      C2426   1.400       .  A
C2421      H2431   1.081       .  S
C2422      C2427   1.498       .  S
C2422      C2423   1.410       .  A
C2423      C2424   1.400       .  A
C2423      F2428   1.357       .  S
C2424      C2425   1.409       .  A
C2424      H2429   1.081       .  S
C2425      C2426   1.412   1_565  A
C2426      F2430   1.357       .  S
C2427      C2432   1.411   1_565  A
C2427      C2436   1.407       .  A
C2432      C2433   1.400       .  A
C2432      F2437   1.357       .  S
C2433      C2434   1.407   1_545  A
C2433      H2438   1.083       .  S
C2434      C2435   1.411       .  A
C2435      C2436   1.399       .  A
C2435      F2439   1.357       .  S
C2436      H2440   1.083       .  S
C2441      C2442   1.405       .  A
C2441      C2446   1.398       .  A
C2441      H2451   1.083       .  S
C2442      C2447   1.490       .  S
C2442      C2443   1.409       .  A
C2443      C2444   1.400       .  A
C2443      F2448   1.357       .  S
C2444      C2445   1.406       .  A
C2444      H2449   1.083       .  S
C2445      C2446   1.409       .  A
C2446      F2450   1.357       .  S
C2447      C2452   1.411       .  A
C2447      C2456   1.406       .  A
C2452      C2453   1.399   1_455  A
C2452      F2457   1.357       .  S
C2453      C2454   1.401       .  A
C2453      H2458   1.082       .  S
C2454      C2455   1.406   1_655  A
C2455      C2456   1.400       .  A
C2455      F2459   1.357   1_565  S
C2456      H2460   1.082       .  S
C2461      C2462   1.408       .  A
C2461      C2466   1.399   1_455  A
C2461      H2471   1.081       .  S
C2462      C2467   1.489       .  S
C2462      C2463   1.409       .  A
C2463      C2464   1.398       .  A
C2463      F2468   1.358       .  S
C2464      C2465   1.404   1_455  A
C2464      H2469   1.082   1_545  S
C2465      C2466   1.405       .  A
C2466      F2470   1.357       .  S
C2467      C2472   1.408       .  A
C2467      C2476   1.406       .  A
C2472      C2473   1.399       .  A
C2472      F2477   1.357       .  S
C2473      C2474   1.406       .  A
C2473      H2478   1.083       .  S
C2474      C2475   1.408       .  A
C2475      C2476   1.397       .  A
C2475      F2479   1.358       .  S
C2476      H2480   1.082       .  S
C2481      C2482   1.403       .  A
C2481      C2486   1.400       .  A
C2481      H2491   1.083       .  S
C2482      C2487   1.476       .  S
C2482      C2483   1.404       .  A
C2483      C2484   1.399       .  A
C2483      F2488   1.357   1_565  S
C2484      C2485   1.405       .  A
C2484      H2489   1.083   1_565  S
C2485      C2486   1.407       .  A
C2486      F2490   1.357       .  S
C2487      C2492   1.404   1_565  A
C2487      C2496   1.402       .  A
C2492      C2493   1.399       .  A
C2492      F2497   1.357       .  S
C2493      C2494   1.406   1_545  A
C2493      H2498   1.082       .  S
C2494      C2495   1.409       .  A
C2495      C2496   1.399       .  A
C2495      F2499   1.357       .  S
C2496      H2500   1.082       .  S
C2501      C2502   1.401       .  A
C2501      C2506   1.392       .  A
C2501      H2511   1.083       .  S
C2502      C2507   1.475       .  S
C2502      C2503   1.404       .  A
C2503      C2504   1.402       .  A
C2503      F2508   1.357       .  S
C2504      C2505   1.407       .  A
C2504      H2509   1.082       .  S
C2505      C2506   1.407       .  A
C2506      F2510   1.358       .  S
C2507      C2512   1.403       .  A
C2507      C2516   1.403       .  A
C2512      C2513   1.393       .  A
C2512      F2517   1.358       .  S
C2513      C2514   1.405       .  A
C2513      H2518   1.083       .  S
C2514      C2515   1.409       .  A
C2515      C2516   1.401       .  A
C2515      F2519   1.357       .  S
C2516      H2520   1.083       .  S
C2521      C2522   1.402       .  A
C2521      C2526   1.401       .  A
C2521      H2531   1.083       .  S
C2522      C2527   1.478       .  S
C2522      C2523   1.402       .  A
C2523      C2524   1.400       .  A
C2523      F2528   1.357       .  S
C2524      C2525   1.410       .  A
C2524      H2529   1.083       .  S
C2525      C2526   1.409       .  A
C2526      F2530   1.357       .  S
C2527      C2532   1.403       .  A
C2527      C2536   1.402       .  A
C2532      C2533   1.400       .  A
C2532      F2537   1.357       .  S
C2533      C2534   1.406       .  A
C2533      H2538   1.083       .  S
C2534      C2535   1.409       .  A
C2535      C2536   1.402       .  A
C2535      F2539   1.357       .  S
C2536      H2540   1.083       .  S
C2541      C2542   1.406       .  A
C2541      C2546   1.397       .  A
C2541      H2551   1.082       .  S
C2542      C2547   1.493       .  S
C2542      C2543   1.409       .  A
C2543      C2544   1.399       .  A
C2543      F2548   1.357       .  S
C2544      C2545   1.408       .  A
C2544      H2549   1.082       .  S
C2545      C2546   1.409       .  A
C2546      F2550   1.357       .  S
C2547      C2552   1.409       .  A
C2547      C2556   1.406       .  A
C2552      C2553   1.397       .  A
C2552      F2557   1.358       .  S
C2553      C2554   1.408       .  A
C2553      H2558   1.083       .  S
C2554      C2555   1.412       .  A
C2555      C2556   1.399       .  A
C2555      F2559   1.357       .  S
C2556      H2560   1.083       .  S
C2561      C2562   1.405   1_565  A
C2561      C2566   1.404       .  A
C2561      H2571   1.082       .  S
C2562      C2567   1.478       .  S
C2562      C2563   1.402       .  A
C2563      C2564   1.394       .  A
C2563      F2568   1.358       .  S
C2564      C2565   1.406   1_545  A
C2564      H2569   1.083       .  S
C2565      C2566   1.408       .  A
C2566      F2570   1.357       .  S
C2567      C2572   1.405       .  A
C2567      C2576   1.400       .  A
C2572      C2573   1.399       .  A
C2572      F2577   1.358       .  S
C2573      C2574   1.407       .  A
C2573      H2578   1.082       .  S
C2574      C2575   1.412       .  A
C2575      C2576   1.400       .  A
C2575      F2579   1.357       .  S
C2576      H2580   1.082       .  S
C2581      C2582   1.409       .  A
C2581      C2586   1.405       .  A
C2581      H2591   1.082       .  S
C2582      C2587   1.489       .  S
C2582      C2583   1.407       .  A
C2583      C2584   1.396       .  A
C2583      F2588   1.358       .  S
C2584      C2585   1.402       .  A
C2584      H2589   1.083       .  S
C2585      C2586   1.405       .  A
C2586      F2590   1.357       .  S
C2587      C2592   1.408       .  A
C2587      C2596   1.405       .  A
C2592      C2593   1.404       .  A
C2592      F2597   1.357       .  S
C2593      C2594   1.406       .  A
C2593      H2598   1.082       .  S
C2594      C2595   1.406       .  A
C2595      C2596   1.396       .  A
C2595      F2599   1.358       .  S
C2596      H2600   1.083       .  S
C2601      C2602   1.406       .  A
C2601      C2606   1.398       .  A
C2601      H2611   1.083       .  S
C2602      C2607   1.487       .  S
C2602      C2603   1.406       .  A
C2603      C2604   1.399       .  A
C2603      F2608   1.357       .  S
C2604      C2605   1.407       .  A
C2604      H2609   1.083       .  S
C2605      C2606   1.409       .  A
C2606      F2610   1.358       .  S
C2607      C2612   1.408       .  A
C2607      C2616   1.407       .  A
C2612      C2613   1.398       .  A
C2612      F2617   1.357       .  S
C2613      C2614   1.404   1_556  A
C2613      H2618   1.082       .  S
C2614      C2615   1.404       .  A
C2615      C2616   1.399   1_554  A
C2615      F2619   1.358       .  S
C2616      H2620   1.082       .  S
C2621      C2622   1.407       .  A
C2621      C2626   1.404       .  A
C2621      H2631   1.082       .  S
C2622      C2627   1.484       .  S
C2622      C2623   1.406       .  A
C2623      C2624   1.395       .  A
C2623      F2628   1.358       .  S
C2624      C2625   1.403       .  A
C2624      H2629   1.082       .  S
C2625      C2626   1.405       .  A
C2626      F2630   1.357       .  S
C2627      C2632   1.408       .  A
C2627      C2636   1.403       .  A
C2632      C2633   1.404       .  A
C2632      F2637   1.357       .  S
C2633      C2634   1.407       .  A
C2633      H2638   1.083       .  S
C2634      C2635   1.407       .  A
C2635      C2636   1.393       .  A
C2635      F2639   1.358   1_545  S
C2636      H2640   1.083       .  S
C2641      C2642   1.403       .  A
C2641      C2646   1.399       .  A
C2641      H2651   1.083       .  S
C2642      C2647   1.488       .  S
C2642      C2643   1.409       .  A
C2643      C2644   1.401       .  A
C2643      F2648   1.358       .  S
C2644      C2645   1.406       .  A
C2644      H2649   1.083       .  S
C2645      C2646   1.411       .  A
C2646      F2650   1.357       .  S
C2647      C2652   1.410       .  A
C2647      C2656   1.405       .  A
C2652      C2653   1.400       .  A
C2652      F2657   1.357       .  S
C2653      C2654   1.401       .  A
C2653      H2658   1.082       .  S
C2654      C2655   1.406   1_545  A
C2655      C2656   1.399   1_565  A
C2655      F2659   1.358       .  S
C2656      H2660   1.082   1_545  S
C2661      C2662   1.408       .  A
C2661      C2666   1.403       .  A
C2661      H2671   1.082       .  S
C2662      C2667   1.485       .  S
C2662      C2663   1.407       .  A
C2663      C2664   1.394       .  A
C2663      F2668   1.358       .  S
C2664      C2665   1.402       .  A
C2664      H2669   1.082       .  S
C2665      C2666   1.405       .  A
C2666      F2670   1.357       .  S
C2667      C2672   1.408       .  A
C2667      C2676   1.404       .  A
C2672      C2673   1.403       .  A
C2672      F2677   1.357       .  S
C2673      C2674   1.406       .  A
C2673      H2678   1.082       .  S
C2674      C2675   1.408       .  A
C2675      C2676   1.393       .  A
C2675      F2679   1.358       .  S
C2676      H2680   1.082       .  S
C2681      C2682   1.403       .  A
C2681      C2686   1.400       .  A
C2681      H2691   1.083       .  S
C2682      C2687   1.483       .  S
C2682      C2683   1.407       .  A
C2683      C2684   1.396       .  A
C2683      F2688   1.358       .  S
C2684      C2685   1.405       .  A
C2684      H2689   1.083       .  S
C2685      C2686   1.412       .  A
C2686      F2690   1.357       .  S
C2687      C2692   1.409       .  A
C2687      C2696   1.403       .  A
C2692      C2693   1.404       .  A
C2692      F2697   1.358       .  S
C2693      C2694   1.405       .  A
C2693      H2698   1.082       .  S
C2694      C2695   1.405       .  A
C2695      C2696   1.394       .  A
C2695      F2699   1.358       .  S
C2696      H2700   1.082       .  S
C2701      C2702   1.407       .  A
C2701      C2706   1.404   1_556  A
C2701      H2711   1.082       .  S
C2702      C2707   1.491       .  S
C2702      C2703   1.409       .  A
C2703      C2704   1.394       .  A
C2703      F2708   1.358       .  S
C2704      C2705   1.404       .  A
C2704      H2709   1.083       .  S
C2705      C2706   1.410   1_556  A
C2706      F2710   1.357       .  S
C2707      C2712   1.412       .  A
C2707      C2716   1.404       .  A
C2712      C2713   1.408       .  A
C2712      F2717   1.357       .  S
C2713      C2714   1.404       .  A
C2713      H2718   1.082       .  S
C2714      C2715   1.405       .  A
C2715      C2716   1.393       .  A
C2715      F2719   1.358       .  S
C2716      H2720   1.082       .  S
C2721      C2722   1.405       .  A
C2721      C2726   1.398       .  A
C2721      H2731   1.083       .  S
C2722      C2727   1.492       .  S
C2722      C2723   1.409       .  A
C2723      C2724   1.402       .  A
C2723      F2728   1.357       .  S
C2724      C2725   1.408       .  A
C2724      H2729   1.083       .  S
C2725      C2726   1.412       .  A
C2726      F2730   1.357       .  S
C2727      C2732   1.411       .  A
C2727      C2736   1.408       .  A
C2732      C2733   1.401       .  A
C2732      F2737   1.357       .  S
C2733      C2734   1.402       .  A
C2733      H2738   1.082       .  S
C2734      C2735   1.403       .  A
C2735      C2736   1.400       .  A
C2735      F2739   1.358       .  S
C2736      H2740   1.082       .  S
C2741      C2742   1.407       .  A
C2741      C2746   1.404       .  A
C2741      H2751   1.082       .  S
C2742      C2747   1.481       .  S
C2742      C2743   1.405       .  A
C2743      C2744   1.392       .  A
C2743      F2748   1.358       .  S
C2744      C2745   1.402       .  A
C2744      H2749   1.083       .  S
C2745      C2746   1.406       .  A
C2746      F2750   1.357       .  S
C2747      C2752   1.407       .  A
C2747      C2756   1.404       .  A
C2752      C2753   1.401       .  A
C2752      F2757   1.357       .  S
C2753      C2754   1.405       .  A
C2753      H2758   1.083       .  S
C2754      C2755   1.406       .  A
C2755      C2756   1.395       .  A
C2755      F2759   1.358       .  S
C2756      H2760   1.083       .  S
C2761      C2762   1.406       .  A
C2761      C2766   1.399       .  A
C2761      H2771   1.083       .  S
C2762      C2767   1.486       .  S
C2762      C2763   1.406       .  A
C2763      C2764   1.399       .  A
C2763      F2768   1.357       .  S
C2764      C2765   1.407       .  A
C2764      H2769   1.083       .  S
C2765      C2766   1.409       .  A
C2766      F2770   1.358       .  S
C2767      C2772   1.406       .  A
C2767      C2776   1.408       .  A
C2772      C2773   1.397       .  A
C2772      F2777   1.358       .  S
C2773      C2774   1.405       .  A
C2773      H2778   1.082       .  S
C2774      C2775   1.405       .  A
C2775      C2776   1.401       .  A
C2775      F2779   1.357       .  S
C2776      H2780   1.082       .  S
C2781      C2782   1.403       .  A
C2781      C2786   1.400       .  A
C2781      H2791   1.083       .  S
C2782      C2787   1.479       .  S
C2782      C2783   1.403       .  A
C2783      C2784   1.398       .  A
C2783      F2788   1.357       .  S
C2784      C2785   1.409       .  A
C2784      H2789   1.082       .  S
C2785      C2786   1.411       .  A
C2786      F2790   1.357       .  S
C2787      C2792   1.406       .  A
C2787      C2796   1.403       .  A
C2792      C2793   1.400       .  A
C2792      F2797   1.358       .  S
C2793      C2794   1.405       .  A
C2793      H2798   1.083       .  S
C2794      C2795   1.407       .  A
C2795      C2796   1.399       .  A
C2795      F2799   1.357       .  S
C2796      H2800   1.083       .  S
C2801      C2802   1.405   1_554  A
C2801      C2806   1.398       .  A
C2801      H2811   1.083       .  S
C2802      C2807   1.484       .  S
C2802      C2803   1.408       .  A
C2803      C2804   1.401       .  A
C2803      F2808   1.357       .  S
C2804      C2805   1.402       .  A
C2804      H2809   1.083       .  S
C2805      C2806   1.403   1_556  A
C2806      F2810   1.357       .  S
C2807      C2812   1.406       .  A
C2807      C2816   1.404       .  A
C2812      C2813   1.398       .  A
C2812      F2817   1.357       .  S
C2813      C2814   1.406       .  A
C2813      H2818   1.082       .  S
C2814      C2815   1.411       .  A
C2815      C2816   1.400       .  A
C2815      F2819   1.357       .  S
C2816      H2820   1.083       .  S
C2821      C2822   1.406       .  A
C2821      C2826   1.403       .  A
C2821      H2831   1.082       .  S
C2822      C2827   1.488       .  S
C2822      C2823   1.409       .  A
C2823      C2824   1.396       .  A
C2823      F2828   1.358       .  S
C2824      C2825   1.403       .  A
C2824      H2829   1.083       .  S
C2825      C2826   1.407       .  A
C2826      F2830   1.357       .  S
C2827      C2832   1.410       .  A
C2827      C2836   1.403       .  A
C2832      C2833   1.405       .  A
C2832      F2837   1.357       .  S
C2833      C2834   1.404       .  A
C2833      H2838   1.082       .  S
C2834      C2835   1.407       .  A
C2835      C2836   1.395       .  A
C2835      F2839   1.358       .  S
C2836      H2840   1.082       .  S
C2841      C2842   1.407       .  A
C2841      C2846   1.398   1_554  A
C2841      H2851   1.083       .  S
C2842      C2847   1.488       .  S
C2842      C2843   1.409       .  A
C2843      C2844   1.402       .  A
C2843      F2848   1.357       .  S
C2844      C2845   1.403   1_554  A
C2844      H2849   1.083   1_654  S
C2845      C2846   1.401       .  A
C2846      F2850   1.357       .  S
C2847      C2852   1.406       .  A
C2847      C2856   1.405       .  A
C2852      C2853   1.398       .  A
C2852      F2857   1.358       .  S
C2853      C2854   1.408       .  A
C2853      H2858   1.083       .  S
C2854      C2855   1.411       .  A
C2855      C2856   1.402       .  A
C2855      F2859   1.357       .  S
C2856      H2860   1.083       .  S
C2861      C2862   1.405       .  A
C2861      C2866   1.394       .  A
C2861      H2871   1.082       .  S
C2862      C2867   1.490       .  S
C2862      C2863   1.409       .  A
C2863      C2864   1.404       .  A
C2863      F2868   1.357       .  S
C2864      C2865   1.406       .  A
C2864      H2869   1.082       .  S
C2865      C2866   1.407       .  A
C2866      F2870   1.358   1_655  S
C2867      C2872   1.407       .  A
C2867      C2876   1.410       .  A
C2872      C2873   1.393       .  A
C2872      F2877   1.358       .  S
C2873      C2874   1.404       .  A
C2873      H2878   1.082       .  S
C2874      C2875   1.405       .  A
C2875      C2876   1.405       .  A
C2875      F2879   1.357       .  S
C2876      H2880   1.081       .  S
C2881      C2882   1.407       .  A
C2881      C2886   1.397   1_655  A
C2881      H2891   1.082       .  S
C2882      C2887   1.487       .  S
C2882      C2883   1.409       .  A
C2883      C2884   1.400       .  A
C2883      F2888   1.357       .  S
C2884      C2885   1.402   1_655  A
C2884      H2889   1.082       .  S
C2885      C2886   1.402       .  A
C2886      F2890   1.358       .  S
C2887      C2892   1.407       .  A
C2887      C2896   1.405       .  A
C2892      C2893   1.398       .  A
C2892      F2897   1.358       .  S
C2893      C2894   1.407       .  A
C2893      H2898   1.083       .  S
C2894      C2895   1.411       .  A
C2895      C2896   1.399       .  A
C2895      F2899   1.357       .  S
C2896      H2900   1.083       .  S
C2901      C2902   1.405       .  A
C2901      C2906   1.402       .  A
C2901      H2911   1.083       .  S
C2902      C2907   1.476       .  S
C2902      C2903   1.403       .  A
C2903      C2904   1.396       .  A
C2903      F2908   1.357       .  S
C2904      C2905   1.404       .  A
C2904      H2909   1.083       .  S
C2905      C2906   1.406       .  A
C2906      F2910   1.357       .  S
C2907      C2912   1.404       .  A
C2907      C2916   1.399       .  A
C2912      C2913   1.402       .  A
C2912      F2917   1.357       .  S
C2913      C2914   1.408       .  A
C2913      H2918   1.082       .  S
C2914      C2915   1.414       .  A
C2915      C2916   1.396       .  A
C2915      F2919   1.358       .  S
C2916      H2920   1.083       .  S
C2921      C2922   1.403       .  A
C2921      C2926   1.398       .  A
C2921      H2931   1.083       .  S
C2922      C2927   1.478       .  S
C2922      C2923   1.405       .  A
C2923      C2924   1.400       .  A
C2923      F2928   1.357       .  S
C2924      C2925   1.404       .  A
C2924      H2929   1.083       .  S
C2925      C2926   1.406       .  A
C2926      F2930   1.357       .  S
C2927      C2932   1.403       .  A
C2927      C2936   1.403       .  A
C2932      C2933   1.399       .  A
C2932      F2937   1.358       .  S
C2933      C2934   1.409       .  A
C2933      H2938   1.083       .  S
C2934      C2935   1.410       .  A
C2935      C2936   1.399       .  A
C2935      F2939   1.357       .  S
C2936      H2940   1.083       .  S
C2941      C2942   1.402       .  A
C2941      C2946   1.395       .  A
C2941      H2951   1.083       .  S
C2942      C2947   1.481       .  S
C2942      C2943   1.406       .  A
C2943      C2944   1.404       .  A
C2943      F2948   1.357       .  S
C2944      C2945   1.406       .  A
C2944      H2949   1.082       .  S
C2945      C2946   1.409       .  A
C2946      F2950   1.358       .  S
C2947      C2952   1.405       .  A
C2947      C2956   1.405       .  A
C2952      C2953   1.397       .  A
C2952      F2957   1.358       .  S
C2953      C2954   1.405       .  A
C2953      H2958   1.083       .  S
C2954      C2955   1.406       .  A
C2955      C2956   1.401       .  A
C2955      F2959   1.357       .  S
C2956      H2960   1.083       .  S
C2961      C2962   1.402       .  A
C2961      C2966   1.400       .  A
C2961      H2971   1.083       .  S
C2962      C2967   1.476       .  S
C2962      C2963   1.402       .  A
C2963      C2964   1.398       .  A
C2963      F2968   1.357       .  S
C2964      C2965   1.408       .  A
C2964      H2969   1.083       .  S
C2965      C2966   1.411       .  A
C2966      F2970   1.357       .  S
C2967      C2972   1.405       .  A
C2967      C2976   1.402       .  A
C2972      C2973   1.401       .  A
C2972      F2977   1.357       .  S
C2973      C2974   1.405       .  A
C2973      H2978   1.084       .  S
C2974      C2975   1.405       .  A
C2975      C2976   1.396       .  A
C2975      F2979   1.358       .  S
C2976      H2980   1.084       .  S
C2981      C2982   1.404       .  A
C2981      C2986   1.401       .  A
C2981      H2991   1.082       .  S
C2982      C2987   1.479       .  S
C2982      C2983   1.404       .  A
C2983      C2984   1.398       .  A
C2983      F2988   1.357       .  S
C2984      C2985   1.406       .  A
C2984      H2989   1.083   1_655  S
C2985      C2986   1.407       .  A
C2986      F2990   1.357       .  S
C2987      C2992   1.404       .  A
C2987      C2996   1.401       .  A
C2992      C2993   1.403       .  A
C2992      F2997   1.357       .  S
C2993      C2994   1.408       .  A
C2993      H2998   1.082       .  S
C2994      C2995   1.412       .  A
C2995      C2996   1.397       .  A
C2995      F2999   1.358       .  S
C2996      H3000   1.083       .  S
C3001      C3002   1.403       .  A
C3001      C3006   1.392       .  A
C3001      H3011   1.082       .  S
C3002      C3007   1.483       .  S
C3002      C3003   1.408       .  A
C3003      C3004   1.404       .  A
C3003      F3008   1.357       .  S
C3004      C3005   1.405       .  A
C3004      H3009   1.082       .  S
C3005      C3006   1.406       .  A
C3006      F3010   1.358       .  S
C3007      C3012   1.406       .  A
C3007      C3016   1.406       .  A
C3012      C3013   1.396       .  A
C3012      F3017   1.358       .  S
C3013      C3014   1.405   1_655  A
C3013      H3018   1.083       .  S
C3014      C3015   1.408       .  A
C3015      C3016   1.402   1_455  A
C3015      F3019   1.357       .  S
C3016      H3020   1.082       .  S
C3021      C3022   1.405       .  A
C3021      C3026   1.394       .  A
C3021      H3031   1.082       .  S
C3022      C3027   1.492       .  S
C3022      C3023   1.410       .  A
C3023      C3024   1.406       .  A
C3023      F3028   1.357       .  S
C3024      C3025   1.407       .  A
C3024      H3029   1.082       .  S
C3025      C3026   1.407       .  A
C3026      F3030   1.358       .  S
C3027      C3032   1.407       .  A
C3027      C3036   1.409       .  A
C3032      C3033   1.394       .  A
C3032      F3037   1.358       .  S
C3033      C3034   1.405       .  A
C3033      H3038   1.082       .  S
C3034      C3035   1.407       .  A
C3035      C3036   1.407       .  A
C3035      F3039   1.357       .  S
C3036      H3040   1.081       .  S
C3041      C3042   1.406       .  A
C3041      C3046   1.399       .  A
C3041      H3051   1.083       .  S
C3042      C3047   1.486       .  S
C3042      C3043   1.406       .  A
C3043      C3044   1.397       .  A
C3043      F3048   1.357       .  S
C3044      C3045   1.408       .  A
C3044      H3049   1.083       .  S
C3045      C3046   1.410       .  A
C3046      F3050   1.357       .  S
C3047      C3052   1.408       .  A
C3047      C3056   1.408       .  A
C3052      C3053   1.398       .  A
C3052      F3057   1.357       .  S
C3053      C3054   1.402       .  A
C3053      H3058   1.082       .  S
C3054      C3055   1.401       .  A
C3055      C3056   1.399       .  A
C3055      F3059   1.357       .  S
C3056      H3060   1.082       .  S
C3061      C3062   1.401       .  A
C3061      C3066   1.398       .  A
C3061      H3071   1.082       .  S
C3062      C3067   1.478       .  S
C3062      C3063   1.404       .  A
C3063      C3064   1.399       .  A
C3063      F3068   1.358       .  S
C3064      C3065   1.409       .  A
C3064      H3069   1.082       .  S
C3065      C3066   1.412       .  A
C3066      F3070   1.357       .  S
C3067      C3072   1.403       .  A
C3067      C3076   1.403       .  A
C3072      C3073   1.396       .  A
C3072      F3077   1.358       .  S
C3073      C3074   1.408       .  A
C3073      H3078   1.082       .  S
C3074      C3075   1.410       .  A
C3075      C3076   1.402       .  A
C3075      F3079   1.357       .  S
C3076      H3080   1.082       .  S
C3081      C3082   1.403       .  A
C3081      C3086   1.393       .  A
C3081      H3091   1.082       .  S
C3082      C3087   1.485       .  S
C3082      C3083   1.409       .  A
C3083      C3084   1.405       .  A
C3083      F3088   1.357       .  S
C3084      C3085   1.404       .  A
C3084      H3089   1.082       .  S
C3085      C3086   1.405       .  A
C3086      F3090   1.358       .  S
C3087      C3092   1.407       .  A
C3087      C3096   1.406       .  A
C3092      C3093   1.393       .  A
C3092      F3097   1.358       .  S
C3093      C3094   1.405       .  A
C3093      H3098   1.083       .  S
C3094      C3095   1.410       .  A
C3095      C3096   1.404       .  A
C3095      F3099   1.357       .  S
C3096      H3100   1.082       .  S
C3101      C3102   1.406       .  A
C3101      C3106   1.401       .  A
C3101      H3111   1.083       .  S
C3102      C3107   1.484       .  S
C3102      C3103   1.406       .  A
C3103      C3104   1.394       .  A
C3103      F3108   1.358       .  S
C3104      C3105   1.406       .  A
C3104      H3109   1.083       .  S
C3105      C3106   1.409       .  A
C3106      F3110   1.357       .  S
C3107      C3112   1.408       .  A
C3107      C3116   1.407       .  A
C3112      C3113   1.397       .  A
C3112      F3117   1.357       .  S
C3113      C3114   1.401       .  A
C3113      H3118   1.083       .  S
C3114      C3115   1.403       .  A
C3115      C3116   1.398       .  A
C3115      F3119   1.358       .  S
C3116      H3120   1.083       .  S
C3121      C3122   1.400       .  A
C3121      C3126   1.394       .  A
C3121      H3131   1.082       .  S
C3122      C3127   1.481       .  S
C3122      C3123   1.407       .  A
C3123      C3124   1.403       .  A
C3123      F3128   1.357       .  S
C3124      C3125   1.407       .  A
C3124      H3129   1.082       .  S
C3125      C3126   1.412       .  A
C3126      F3130   1.358       .  S
C3127      C3132   1.405       .  A
C3127      C3136   1.406       .  A
C3132      C3133   1.397       .  A
C3132      F3137   1.358       .  S
C3133      C3134   1.406       .  A
C3133      H3138   1.083       .  S
C3134      C3135   1.405       .  A
C3135      C3136   1.401       .  A
C3135      F3139   1.357       .  S
C3136      H3140   1.083       .  S
C3141      C3142   1.407       .  A
C3141      C3146   1.402       .  A
C3141      H3151   1.082       .  S
C3142      C3147   1.488       .  S
C3142      C3143   1.408       .  A
C3143      C3144   1.393       .  A
C3143      F3148   1.357       .  S
C3144      C3145   1.403       .  A
C3144      H3149   1.082       .  S
C3145      C3146   1.409       .  A
C3146      F3150   1.358       .  S
C3147      C3152   1.409       .  A
C3147      C3156   1.406       .  A
C3152      C3153   1.400       .  A
C3152      F3157   1.357       .  S
C3153      C3154   1.405       .  A
C3153      H3158   1.083       .  S
C3154      C3155   1.406       .  A
C3155      C3156   1.397       .  A
C3155      F3159   1.357       .  S
C3156      H3160   1.082       .  S
C3161      C3162   1.404       .  A
C3161      C3166   1.398       .  A
C3161      H3171   1.083       .  S
C3162      C3167   1.486       .  S
C3162      C3163   1.408       .  A
C3163      C3164   1.403       .  A
C3163      F3168   1.357       .  S
C3164      C3165   1.405       .  A
C3164      H3169   1.083       .  S
C3165      C3166   1.408       .  A
C3166      F3170   1.358       .  S
C3167      C3172   1.406       .  A
C3167      C3176   1.405       .  A
C3172      C3173   1.397       .  A
C3172      F3177   1.358       .  S
C3173      C3174   1.405       .  A
C3173      H3178   1.083       .  S
C3174      C3175   1.410       .  A
C3175      C3176   1.405       .  A
C3175      F3179   1.357       .  S
C3176      H3180   1.082       .  S
C3181      C3182   1.402       .  A
C3181      C3186   1.398       .  A
C3181      H3191   1.083       .  S
C3182      C3187   1.479       .  S
C3182      C3183   1.407       .  A
C3183      C3184   1.396       .  A
C3183      F3188   1.358       .  S
C3184      C3185   1.404       .  A
C3184      H3189   1.083       .  S
C3185      C3186   1.411       .  A
C3186      F3190   1.358       .  S
C3187      C3192   1.408       .  A
C3187      C3196   1.402       .  A
C3192      C3193   1.400       .  A
C3192      F3197   1.358       .  S
C3193      C3194   1.403       .  A
C3193      H3198   1.082       .  S
C3194      C3195   1.406       .  A
C3195      C3196   1.394       .  A
C3195      F3199   1.358       .  S
C3196      H3200   1.082       .  S
