geometry optimzed in LAMMPS
_audit_creation_date              2020-11-30 
_audit_creation_method            'lammps2cif' 
_symmetry_space_group_name_H-M    'P1' 
_symmetry_Int_Tables_number       1 
_symmetry_cell_setting            triclinic 
loop_ 
_symmetry_equiv_pos_as_xyz 
  x,y,z 
_cell_length_a                    69.22141955 
_cell_length_b                    69.37797421455188 
_cell_length_c                    68.9565015575833 
_cell_angle_alpha                 89.85390145041079 
_cell_angle_beta                  89.84554573654239 
_cell_angle_gamma                 90.55858546854449 
loop_ 
_atom_site_label 
_atom_site_type_symbol 
_atom_site_fract_x 
_atom_site_fract_y 
_atom_site_fract_z 
_atom_site_charge 
O1          O  0.66867592  0.64198160  0.62623663    -0.88700
C2          C  0.61427838  0.64632511  0.60647335     0.87400
Mg3        Mg  0.67725938  0.61622773  0.64027996     1.58100
O4          O  0.62200370  0.67309188  0.64893708    -0.88400
O5          O  0.66530356  0.67244931  0.63404385    -0.75700
C6          C  0.60592336  0.59569008  0.70236790     0.92400
O7          O  0.64061499  0.60938613  0.60874795    -0.75500
O8          O  0.62008827  0.58720140  0.69427111    -0.83100
Mg9        Mg  0.65454547  0.63818473  0.59879902     1.58000
C10         C  0.58363164  0.67237128  0.69425201     0.92300
O11         O  0.66870153  0.66678448  0.58638615    -0.81300
H12         H  0.63695260  0.69356435  0.66288975    -0.06700
C13         C  0.59610052  0.62165484  0.65588456     0.87300
O14         O  0.67256398  0.63001505  0.67028198    -0.75800
O15         O  0.63034900  0.65295462  0.61091130    -0.88600
O16         O  0.58355038  0.67692730  0.67619442    -0.81400
C17         C  0.58950749  0.69355636  0.61263337     0.92400
C18         C  0.66356015  0.68447107  0.58565503     0.92300
Mg19       Mg  0.61786728  0.64098766  0.68859656     1.58000
O20         O  0.60340746  0.61374215  0.70050939    -0.81300
O21         O  0.63140887  0.66967287  0.67905281    -0.75600
O22         O  0.60742471  0.69116780  0.60969161    -0.81400
O23         O  0.67876010  0.61976705  0.58560605    -0.83100
O24         O  0.66518337  0.58500823  0.67843413    -0.81400
C25         C  0.63007398  0.67952063  0.66358017     0.86700
O26         O  0.64194075  0.62530304  0.67742902    -0.88600
O27         O  0.60301235  0.63712768  0.66167301    -0.88700
O28         O  0.60582105  0.60618700  0.65567506    -0.75700
Mg29       Mg  0.63544802  0.68098641  0.62257028     1.58000
O30         O  0.58136436  0.68739326  0.62815319    -0.83100
H31         H  0.68978688  0.65731410  0.63880071    -0.06800
O32         O  0.64824923  0.60577223  0.63941160    -0.88400
H33         H  0.63287135  0.58600163  0.62487555    -0.06700
H34         H  0.66033656  0.63813471  0.69574715    -0.06800
C35         C  0.64040778  0.59972004  0.62446762     0.86700
C36         C  0.67530594  0.65720048  0.63296302     0.87300
C37         C  0.65827013  0.63124907  0.68185043     0.87300
H38         H  0.58153761  0.62141455  0.65025889    -0.06800
O39         O  0.59969903  0.64754246  0.61767424    -0.75800
Mg40       Mg  0.63574148  0.59695206  0.66659894     1.58000
H41         H  0.61270960  0.63878931  0.59285612    -0.06800
C42         C  0.68504559  0.60429537  0.59331686     0.92300
O43         O  0.68718911  0.58954485  0.65517091    -0.83100
C44         C  0.68190310  0.58199518  0.67111804     0.92400
O45         O  0.64967511  0.69074662  0.59570887    -0.83100
Mg46       Mg  0.59292876  0.66213780  0.64685852     1.58200
O47         O  0.68403110  0.60153039  0.61154235    -0.81400
O48         O  0.59333340  0.65823179  0.70063835    -0.83100
O49         O  0.89592326  0.65713908  0.36768786    -0.88700
C50         C  0.84323947  0.68117020  0.37397446     0.87400
Mg51       Mg  0.90370193  0.64178948  0.34229163     1.58100
O52         O  0.84946247  0.63856213  0.40070728    -0.88400
O53         O  0.89344447  0.65155938  0.39892615    -0.75700
C54         C  0.82647318  0.58740992  0.32277525     0.92400
O55         O  0.86912874  0.67592056  0.33503274    -0.75500
O56         O  0.84097415  0.59383489  0.31319784    -0.83100
Mg57       Mg  0.88405854  0.68535331  0.36327499     1.58000
C58         C  0.80860395  0.59494491  0.40057150     0.92300
O59         O  0.89970187  0.69700540  0.39111583    -0.81300
H60         H  0.86430669  0.62322880  0.42012362    -0.06700
C61         C  0.82221358  0.63424546  0.34930789     0.87300
O62         O  0.89644665  0.61283928  0.35675262    -0.75800
O63         O  0.85924496  0.67559096  0.37955243    -0.88600
O64         O  0.81030407  0.61255247  0.40607510    -0.81400
C65         C  0.81907093  0.67541340  0.42268634     0.92400
C66         C  0.89533033  0.69919393  0.40903754     0.92300
Mg67       Mg  0.84113807  0.59976011  0.36780571     1.58000
O68         O  0.82532822  0.58973038  0.34099805    -0.81300
O69         O  0.85611851  0.60801819  0.39636531    -0.75600
O70         O  0.83687650  0.67851772  0.41912765    -0.81400
O71         O  0.90901481  0.69616501  0.34345124    -0.83100
O72         O  0.88818366  0.60473059  0.31208814    -0.81400
C73         C  0.85671871  0.62334021  0.40644140     0.86700
O74         O  0.86543577  0.60877490  0.35169312    -0.88600
O75         O  0.82873548  0.62758605  0.36464494    -0.88700
O76         O  0.83146333  0.63343839  0.33332133    -0.75700
Mg77       Mg  0.86436793  0.66453965  0.40798664     1.58000
O78         O  0.81067837  0.65987043  0.41720933    -0.83100
H79         H  0.91701969  0.64472448  0.38288120    -0.06800
O80         O  0.87508239  0.64507540  0.33148547    -0.88400
H81         H  0.86062789  0.66027925  0.31168378    -0.06700
H82         H  0.88154057  0.58872411  0.36460324    -0.06800
C83         C  0.86819761  0.66033861  0.32537708     0.86700
C84         C  0.90284009  0.65111966  0.38306589     0.87300
C85         C  0.88108210  0.60272003  0.35769997     0.87300
H86         H  0.80842063  0.64141817  0.34960815    -0.06800
O87         O  0.82796507  0.67099982  0.37620134    -0.75800
Mg88       Mg  0.85992109  0.61955460  0.32314076     1.58000
H89         H  0.84225973  0.69493274  0.36667403    -0.06800
C90         C  0.91533071  0.68710375  0.32865747     0.92300
O91         O  0.91280763  0.62536424  0.31592463    -0.83100
C92         C  0.90591815  0.60958973  0.30956569     0.92400
O93         O  0.88044671  0.69131103  0.41652422    -0.83100
Mg94       Mg  0.82028734  0.64184943  0.39082470     1.58200
O95         O  0.91308239  0.66900193  0.32708976    -0.81400
O96         O  0.81622493  0.58906008  0.38498213    -0.83100
O97         O  0.88993847  0.35129805  0.13660872    -0.88700
C98         C  0.84019402  0.32039972  0.13451540     0.87400
Mg99       Mg  0.89826929  0.36752777  0.16139377     1.58100
O100        O  0.83977560  0.36307019  0.10750567    -0.88400
O101        O  0.88465168  0.35629559  0.10564334    -0.75700
C102        C  0.81868653  0.41492317  0.18676482     0.92400
O103        O  0.86732678  0.33039947  0.17084973    -0.75500
O104        O  0.83456097  0.41055337  0.19504029    -0.83100
Mg105      Mg  0.88149588  0.32196676  0.14171470     1.58000
C106        C  0.79608653  0.40123858  0.11009858     0.92300
O107        O  0.89662492  0.31193013  0.11263523    -0.81300
H108        H  0.85103470  0.37994063  0.08671056    -0.06700
C109        C  0.81657455  0.36598857  0.16149905     0.87300
O110        O  0.88757428  0.39542771  0.14712621    -0.75800
O111        O  0.85487416  0.32803139  0.12743089    -0.88600
O112        O  0.79945343  0.38389431  0.10477143    -0.81400
C113        C  0.81201475  0.32199189  0.08828365     0.92400
C114        C  0.89133602  0.30921694  0.09502043     0.92300
Mg115      Mg  0.83006773  0.40153936  0.14081753     1.58000
O116        O  0.81588058  0.41102747  0.16896806    -0.81300
O117        O  0.84326712  0.39435240  0.11105340    -0.75600
O118        O  0.83030584  0.32183086  0.09005371    -0.81400
O119        O  0.90841299  0.31445522  0.15959421    -0.83100
O120        O  0.88290426  0.40357125  0.19373932    -0.81400
C121        C  0.84472927  0.37904920  0.10104983     0.86700
O122        O  0.85685530  0.39664226  0.15489677    -0.88600
O123        O  0.82143158  0.37232590  0.14536707    -0.88700
O124        O  0.82663652  0.36907757  0.17666450    -0.75700
Mg125      Mg  0.85676744  0.33945587  0.09879983     1.58000
O126        O  0.80214149  0.33614953  0.09467301    -0.83100
H127        H  0.90828214  0.36638891  0.11987248    -0.06800
O128        O  0.87093184  0.36177836  0.17464403    -0.88400
H129        H  0.85837078  0.34493334  0.19470393    -0.06700
H130        H  0.87017329  0.41774950  0.14005745    -0.06800
C131        C  0.86544131  0.34578635  0.18072541     0.86700
C132        C  0.89499260  0.35811322  0.12075355     0.87300
C133        C  0.87140641  0.40398178  0.14730613     0.87300
H134        H  0.80353163  0.35736452  0.16270922    -0.06800
O135        O  0.82378764  0.32854525  0.13409006    -0.75800
Mg136      Mg  0.85465466  0.38611398  0.18416886     1.58000
H137        H  0.84146189  0.30662960  0.14175075    -0.06800
C138        C  0.91395476  0.32354357  0.17469545     0.92300
O139        O  0.90820316  0.38530423  0.18644017    -0.83100
C140        C  0.90105976  0.39995905  0.19465081     0.92400
O141        O  0.87524383  0.31522485  0.08875420    -0.83100
Mg142      Mg  0.81219495  0.35627615  0.11999594     1.58200
O143        O  0.91032577  0.34132694  0.17689501    -0.81400
O144        O  0.80222267  0.40781926  0.12609307    -0.83100
C145        C  0.74479045  0.53328392  0.00343742     0.79900
N146        N  0.75432041  0.52362084  0.01787759    -0.78400
C147        C  0.75435668  0.50396755  0.01801335     0.82300
N148        N  0.74434608  0.49430807  0.00436983    -0.78400
C149        C  0.73460710  0.50349295  0.99032105     0.82400
N150        N  0.73502222  0.52307178  0.98955263    -0.80100
C151        C  0.03458705  0.50334124  0.25375228     0.79900
N152        N  0.02295809  0.48944889  0.24546734    -0.78400
C153        C  0.00329299  0.49083824  0.24686919     0.82300
N154        N  0.99570509  0.50552468  0.25706191    -0.78400
C155        C  0.00684021  0.51915650  0.26542157     0.82400
N156        N  0.02635194  0.51831069  0.26355349    -0.80100
O157        O  0.67012732  0.35613575  0.87863568    -0.88700
C158        C  0.61783876  0.34914255  0.90302197     0.87400
Mg159      Mg  0.67870938  0.38211233  0.86531225     1.58100
O160        O  0.62263871  0.32766230  0.85721835    -0.88400
O161        O  0.66694055  0.32621069  0.86908243    -0.75700
C162        C  0.60240438  0.41134944  0.81498853     0.92400
O163        O  0.64415297  0.38724063  0.90031409    -0.75500
O164        O  0.61833948  0.41860379  0.82090761    -0.83100
Mg165      Mg  0.65830086  0.35822196  0.90734469     1.58000
C166        C  0.58071068  0.33328303  0.81556636     0.92300
O167        O  0.67308391  0.32945403  0.91676854    -0.81300
H168        H  0.63583334  0.30950997  0.83910578    -0.06700
C169        C  0.59742731  0.37982580  0.85863377     0.87300
O170        O  0.67048674  0.37057865  0.83521972    -0.75800
O171        O  0.63348003  0.34363282  0.89636818    -0.88600
O172        O  0.58337250  0.32591087  0.83241738    -0.81400
C173        C  0.59242508  0.30314437  0.89338911     0.92400
C174        C  0.66866190  0.31149452  0.91648092     0.92300
Mg175      Mg  0.61414227  0.36455250  0.82175650     1.58000
O176        O  0.59924629  0.39324815  0.81551480    -0.81300
O177        O  0.62788124  0.33472970  0.82655439    -0.75600
O178        O  0.61050280  0.30540245  0.89556317    -0.81400
O179        O  0.68325873  0.37633309  0.91968793    -0.83100
O180        O  0.66539889  0.41782784  0.83140962    -0.81400
C181        C  0.62889780  0.32327856  0.84097765     0.86700
O182        O  0.64004388  0.37832595  0.83111940    -0.88600
O183        O  0.60320889  0.36501462  0.85056067    -0.88700
O184        O  0.60737317  0.39537727  0.85874510    -0.75700
Mg185      Mg  0.63782768  0.31687331  0.88177179     1.58000
O186        O  0.58360734  0.31043952  0.87888938    -0.83100
H187        H  0.69114475  0.34232492  0.86459467    -0.06800
O188        O  0.65072784  0.39374567  0.86976349    -0.88400
H189        H  0.63642759  0.41200703  0.88684300    -0.06700
H190        H  0.65561805  0.36563464  0.81037556    -0.06800
C191        C  0.64371999  0.39835117  0.88562301     0.86700
C192        C  0.67682652  0.34159679  0.87087010     0.87300
C193        C  0.65534103  0.37155896  0.82485807     0.87300
H194        H  0.58367699  0.37944501  0.86610298    -0.06800
O195        O  0.60243469  0.34904261  0.89299188    -0.75800
Mg196      Mg  0.63640955  0.40552321  0.84525620     1.58000
H197        H  0.61738007  0.35475066  0.91762824    -0.06800
C198        C  0.68990007  0.39170958  0.91184684     0.92300
O199        O  0.68916354  0.40871566  0.85097822    -0.83100
C200        C  0.68312649  0.41852341  0.83675535     0.92400
O201        O  0.65435360  0.30507978  0.90686260    -0.83100
Mg202      Mg  0.59396429  0.33792817  0.86272536     1.58200
O203        O  0.68827819  0.39482623  0.89378173    -0.81400
O204        O  0.58752308  0.34970595  0.81094329    -0.83100
O205        O  0.33448509  0.13956105  0.87310700    -0.88700
C206        C  0.38797925  0.14128079  0.89587261     0.87400
Mg207      Mg  0.32398599  0.11453843  0.85855268     1.58100
O208        O  0.38360922  0.16762562  0.85253078    -0.88400
O209        O  0.33991470  0.17008599  0.86627617    -0.75700
C210        C  0.39828983  0.08742366  0.80318814     0.92400
O211        O  0.35873157  0.10533154  0.89222954    -0.75500
O212        O  0.38286921  0.07948699  0.80980571    -0.83100
Mg213      Mg  0.34679609  0.13481325  0.90137312     1.58000
C214        C  0.42303099  0.16324225  0.80814163     0.92300
O215        O  0.33448581  0.16407374  0.91325651    -0.81300
H216        H  0.36968029  0.18758976  0.83713312    -0.06700
C217        C  0.40561644  0.11432797  0.84865038     0.87300
O218        O  0.33175559  0.12725930  0.82881836    -0.75800
O219        O  0.37253871  0.14840166  0.89051257    -0.88600
O220        O  0.42336566  0.16826096  0.82605587    -0.81400
C221        C  0.41682123  0.18596419  0.88942895     0.92400
C222        C  0.34051054  0.18155124  0.91469123     0.92300
Mg223      Mg  0.38722390  0.13354378  0.81396792     1.58000
O224        O  0.40113793  0.10550980  0.80445567    -0.81300
O225        O  0.37484554  0.16296765  0.82226266    -0.75600
O226        O  0.39872694  0.18469358  0.89241606    -0.81400
O227        O  0.32055642  0.11766078  0.91333769    -0.83100
O228        O  0.33545297  0.08104557  0.82200392    -0.81400
C229        C  0.37609495  0.17344421  0.83733411     0.86700
O230        O  0.36195497  0.11936021  0.82389733    -0.88600
O231        O  0.40031313  0.12991657  0.84173418    -0.88700
O232        O  0.39486529  0.09932240  0.84861092    -0.75700
Mg233      Mg  0.37001626  0.17673918  0.87870722     1.58000
O234        O  0.42438393  0.18003252  0.87362424    -0.83100
H235        H  0.31471743  0.15612782  0.86033995    -0.06800
O236        O  0.35155407  0.10128642  0.86148043    -0.88400
H237        H  0.36479350  0.08105327  0.87713477    -0.06700
H238        H  0.34628109  0.13290146  0.80382406    -0.06800
C239        C  0.35839148  0.09520381  0.87687906     0.86700
C240        C  0.32899163  0.15522878  0.86658191     0.87300
C241        C  0.34668650  0.12647156  0.81811272     0.87300
H242        H  0.41963949  0.11359483  0.85546468    -0.06800
O243        O  0.40306214  0.14163888  0.88526513    -0.75800
Mg244      Mg  0.36523955  0.09107982  0.83567315     1.58000
H245        H  0.38854825  0.13415106  0.90981530    -0.06800
C246        C  0.31212196  0.10355897  0.90487106     0.92300
O247        O  0.31215865  0.08882582  0.84299263    -0.83100
C248        C  0.31781219  0.08026692  0.82777685     0.92400
O249        O  0.35531545  0.18757534  0.90550660    -0.83100
Mg250      Mg  0.41174630  0.15492565  0.85571890     1.58200
O251        O  0.31353909  0.10109427  0.88667369    -0.81400
O252        O  0.41262685  0.14932933  0.80223061    -0.83100
C253        C  0.50568149  0.23589454  0.03453161     0.79900
N254        N  0.49321782  0.22476585  0.02382814    -0.78400
C255        C  0.49486350  0.22436936  0.00415209     0.82300
N256        N  0.50830169  0.23551578  0.99533421    -0.78400
C257        C  0.52039585  0.24693247  0.00551022     0.82400
N258        N  0.51931338  0.24704844  0.02523541    -0.80100
C259        C  0.51074688  0.24724700  0.67660563     0.79900
N260        N  0.52299828  0.25988380  0.68578833    -0.78400
C261        C  0.52546015  0.25868711  0.70532329     0.82300
N262        N  0.51539661  0.24539467  0.71548995    -0.78400
C263        C  0.50285884  0.23308185  0.70699087     0.82400
N264        N  0.50053949  0.23391039  0.68734665    -0.80100
C265        C  0.54112394  0.99911602  0.74970541     0.79900
N266        N  0.52992790  0.98641608  0.73932097    -0.78400
C267        C  0.51029285  0.98757621  0.74014644     0.82300
N268        N  0.50209199  0.00084730  0.75166971    -0.78400
C269        C  0.51274431  0.01327978  0.76218992     0.82400
N270        N  0.53238276  0.01271756  0.76106577    -0.80100
C271        C  0.97149284  0.00158277  0.24513448     0.79900
N272        N  0.98186543  0.98879402  0.25607195    -0.78400
C273        C  0.00150551  0.99044018  0.25699851     0.82300
N274        N  0.01056250  0.00431266  0.24656860    -0.78400
C275        C  0.00068238  0.01676273  0.23544636     0.82400
N276        N  0.98105359  0.01562932  0.23481737    -0.80100
C277        C  0.25501812  0.31726934  0.98997694     0.79900
N278        N  0.24254753  0.30926580  0.00325425    -0.78400
C279        C  0.24203248  0.28980767  0.00581382     0.82300
N280        N  0.25340339  0.27857663  0.99481710    -0.78400
C281        C  0.26553538  0.28605070  0.98136879     0.82400
N282        N  0.26670678  0.30558663  0.97913448    -0.80100
C283        C  0.24368938  0.96489822  0.99403857     0.79900
N284        N  0.25332361  0.97406310  0.97918943    -0.78400
C285        C  0.25172471  0.99345336  0.97679604     0.82300
N286        N  0.24065365  0.00352110  0.98906546    -0.78400
C287        C  0.23117426  0.99506480  0.00394435     0.82400
N288        N  0.23289904  0.97562079  0.00677057    -0.80100
C289        C  0.32064668  0.99840781  0.24433390     0.79900
N290        N  0.31084028  0.98368391  0.25339398    -0.78400
C291        C  0.29116461  0.98303767  0.25295628     0.82300
N292        N  0.28152664  0.99720674  0.24382220    -0.78400
C293        C  0.29082603  0.01202228  0.23500735     0.82400
N294        N  0.31050650  0.01260471  0.23514801    -0.80100
C295        C  0.98784266  0.23990900  0.96249286     0.79900
N296        N  0.00108242  0.22948430  0.97279165    -0.78400
C297        C  0.00115043  0.23013893  0.99252266     0.82300
N298        N  0.98856384  0.24162259  0.00176339    -0.78400
C299        C  0.97564259  0.25235345  0.99203415     0.82400
N300        N  0.97498530  0.25132492  0.97226534    -0.80100
C301        C  0.00042872  0.25346004  0.31258184     0.79900
N302        N  0.98527063  0.26109738  0.30246603    -0.78400
C303        C  0.98464025  0.25958622  0.28279641     0.82300
N304        N  0.99914939  0.25074892  0.27341454    -0.78400
C305        C  0.01432490  0.24322757  0.28291635     0.82400
N306        N  0.01496964  0.24439415  0.30267875    -0.80100
O307        O  0.14766967  0.12627852  0.16536880    -0.88700
C308        C  0.14999740  0.10115779  0.11295995     0.87400
Mg309      Mg  0.12193211  0.13945414  0.17556320     1.58100
O310        O  0.17311935  0.14620296  0.11540499    -0.88400
O311        O  0.17769269  0.13501159  0.15956705    -0.75700
C312        C  0.08907446  0.18935550  0.09964310     0.92400
O313        O  0.11444230  0.10426303  0.14207772    -0.75500
O314        O  0.08247050  0.18327822  0.11590269    -0.83100
Mg315      Mg  0.14462682  0.09749269  0.15423603     1.58000
C316        C  0.16628304  0.18741043  0.07384995     0.92300
O317        O  0.17479398  0.08813312  0.16686187    -0.81300
H318        H  0.19237284  0.16388199  0.12789804    -0.06700
C319        C  0.11915093  0.14557820  0.09360165     0.87300
O320        O  0.13296929  0.16944843  0.16625066    -0.75800
O321        O  0.15718368  0.10778913  0.12800424    -0.88600
O322        O  0.17264741  0.17026097  0.07596803    -0.81400
C323        C  0.19388192  0.10947602  0.08342724     0.92400
C324        C  0.19237209  0.08795201  0.16092373     0.92300
Mg325      Mg  0.13649455  0.18210720  0.10923275     1.58000
O326        O  0.10705591  0.18876325  0.09571428    -0.81300
O327        O  0.16688844  0.17664173  0.12151234    -0.75600
O328        O  0.19323226  0.10733407  0.10172494    -0.81400
O329        O  0.12857287  0.08565939  0.18084061    -0.83100
O330        O  0.08520266  0.17273056  0.16354166    -0.81400
C331        C  0.17815438  0.16223079  0.12163356     0.86700
O332        O  0.12371484  0.17305544  0.13598979    -0.88600
O333        O  0.13451319  0.15344962  0.09849764    -0.88700
O334        O  0.10426522  0.14550099  0.10449215    -0.75700
Mg335      Mg  0.18466859  0.12183447  0.12990485     1.58000
O336        O  0.18652531  0.12423281  0.07527392    -0.83100
H337        H  0.16358475  0.14082997  0.18468495    -0.06800
O338        O  0.10843277  0.13472757  0.14819934    -0.88400
H339        H  0.08915425  0.11726247  0.13547865    -0.06700
H340        H  0.13712217  0.19404196  0.15072570    -0.06800
C341        C  0.10332900  0.11877394  0.14187548     0.86700
C342        C  0.16296573  0.13404694  0.17060032     0.87300
C343        C  0.13122145  0.17955722  0.15093514     0.87300
H344        H  0.11848966  0.13817606  0.07983867    -0.06800
O345        O  0.14900638  0.11097145  0.09738175    -0.75800
Mg346      Mg  0.09605746  0.15902290  0.13393070     1.58000
H347        H  0.14384902  0.08677414  0.11323941    -0.06800
C348        C  0.11329959  0.09298131  0.18799942     0.92300
O349        O  0.09568854  0.15385444  0.18743472    -0.83100
C350        C  0.08533390  0.16765410  0.18146768     0.92400
O351        O  0.19767713  0.09708344  0.14581238    -0.83100
Mg352      Mg  0.16042170  0.14072627  0.08759866     1.58200
O353        O  0.10966192  0.11083508  0.18629310    -0.81400
O354        O  0.15068704  0.19286367  0.08179495    -0.83100
O355        O  0.39469574  0.85282769  0.63248168    -0.88700
C356        C  0.34284034  0.82693418  0.62955553     0.87400
Mg357      Mg  0.40183649  0.87035100  0.65635024     1.58100
O358        O  0.34804330  0.86653727  0.59830478    -0.88400
O359        O  0.39227199  0.85585685  0.60091169    -0.75700
C360        C  0.32469798  0.92570482  0.67006751     0.92400
O361        O  0.36791241  0.83642335  0.66682945    -0.75500
O362        O  0.33937691  0.92053686  0.67993487    -0.83100
Mg363      Mg  0.38333943  0.82487290  0.63958082     1.58000
C364        C  0.30645150  0.90756503  0.59353601     0.92300
O365        O  0.39966609  0.81181281  0.61294598    -0.81300
H366        H  0.36234981  0.88012873  0.57697328    -0.06700
C367        C  0.32034991  0.87605357  0.64883109     0.87300
O368        O  0.39473826  0.89773173  0.63905197    -0.75800
O369        O  0.35862681  0.83238242  0.62290557    -0.88600
O370        O  0.30852775  0.88955240  0.59006750    -0.81400
C371        C  0.31883653  0.82578397  0.58158237     0.92400
C372        C  0.39528337  0.80788227  0.59537701     0.92300
Mg373      Mg  0.33908855  0.90844356  0.62656579     1.58000
O374        O  0.32304504  0.92127048  0.65225831    -0.81300
O375        O  0.35416299  0.89760339  0.59901517    -0.75600
O376        O  0.33678272  0.82453407  0.58490955    -0.81400
O377        O  0.40809315  0.81643218  0.65994876    -0.83100
O378        O  0.38644327  0.90990914  0.68407647    -0.81400
C379        C  0.35490733  0.88128388  0.59071979     0.86700
O380        O  0.36373853  0.90224361  0.64363808    -0.88600
O381        O  0.32714596  0.88076287  0.63285449    -0.88700
O382        O  0.32948417  0.87892630  0.66457792    -0.75700
Mg383      Mg  0.36356097  0.84078718  0.59359361     1.58000
O384        O  0.30967556  0.84128724  0.58513545    -0.83100
H385        H  0.41562486  0.86484028  0.61629049    -0.06800
O386        O  0.37306145  0.86773609  0.66719284    -0.88400
H387        H  0.35846602  0.85403255  0.68826005    -0.06700
H388        H  0.38023884  0.92078581  0.62854479    -0.06800
C389        C  0.36631813  0.85289776  0.67474458     0.86700
C390        C  0.40158481  0.85788022  0.61665127     0.87300
C391        C  0.37951676  0.90762688  0.63696095     0.87300
H392        H  0.30643159  0.86886383  0.64938229    -0.06800
O393        O  0.32736185  0.83628666  0.62673672    -0.75800
Mg394      Mg  0.35807646  0.89400107  0.67315135     1.58000
H395        H  0.34227760  0.81408952  0.63845540    -0.06800
C396        C  0.41358797  0.82661127  0.67432524     0.92300
O397        O  0.41036749  0.88890554  0.68080478    -0.83100
C398        C  0.40389421  0.90468397  0.68717916     0.92400
O399        O  0.38001454  0.81407358  0.58751677    -0.83100
Mg400      Mg  0.31898668  0.86299764  0.60878901     1.58200
O401        O  0.41100349  0.84472191  0.67459569    -0.81400
O402        O  0.31384175  0.91559478  0.60830501    -0.83100
O403        O  0.14589929  0.87817875  0.33073606    -0.88700
C404        C  0.15066854  0.90033850  0.38402789     0.87400
Mg405      Mg  0.11996484  0.86448973  0.32186157     1.58100
O406        O  0.17568203  0.85694220  0.37821508    -0.88400
O407        O  0.17636584  0.87040705  0.33430528    -0.75700
C408        C  0.09503854  0.80750634  0.39610454     0.92400
O409        O  0.11370806  0.89754869  0.35733313    -0.75500
O410        O  0.08644197  0.81508184  0.38161325    -0.83100
Mg411      Mg  0.14283742  0.90623331  0.34320499     1.58000
C412        C  0.17194722  0.81292645  0.41774825     0.92300
O413        O  0.17214048  0.91664864  0.32843110    -0.81300
H414        H  0.19487825  0.84157904  0.36321818    -0.06700
C415        C  0.12318605  0.85292350  0.40336819     0.87300
O416        O  0.13246589  0.83462709  0.32799839    -0.75800
O417        O  0.15725197  0.89510947  0.36818382    -0.88600
O418        O  0.17751655  0.83064790  0.41778795    -0.81400
C419        C  0.19678689  0.89342381  0.41034737     0.92400
C420        C  0.18992107  0.91735926  0.33365650     0.92300
Mg421      Mg  0.14094947  0.81886244  0.38312470     1.58000
O422        O  0.11327217  0.80870720  0.39808717    -0.81300
O423        O  0.17003926  0.82703034  0.36932521    -0.75600
O424        O  0.19499453  0.89599073  0.39219683    -0.81400
O425        O  0.12433742  0.91875157  0.31826605    -0.83100
O426        O  0.08547590  0.82864895  0.33450806    -0.81400
C427        C  0.18092984  0.84185498  0.37030019     0.86700
O428        O  0.12571494  0.82900861  0.35860882    -0.88600
O429        O  0.13842906  0.84633952  0.39680780    -0.88700
O430        O  0.10764106  0.85308640  0.39356252    -0.75700
Mg431      Mg  0.18493322  0.88259117  0.36404136     1.58000
O432        O  0.19007252  0.87826871  0.41867863    -0.83100
H433        H  0.16095006  0.86505259  0.30987701    -0.06800
O434        O  0.10839506  0.86700110  0.35042858    -0.88400
H435        H  0.08949021  0.88279939  0.36536728    -0.06700
H436        H  0.13818249  0.80937173  0.34161799    -0.06800
C437        C  0.10319914  0.88237356  0.35783964     0.86700
C438        C  0.16101254  0.87123450  0.32425233     0.87300
C439        C  0.13206635  0.82360631  0.34274628     0.87300
H440        H  0.12322761  0.85924266  0.41768214    -0.06800
O441        O  0.15112970  0.88963380  0.39903779    -0.75800
Mg442      Mg  0.09782401  0.84115316  0.36401409     1.58000
H443        H  0.14382303  0.91424340  0.38500965    -0.06800
C444        C  0.10878580  0.91080552  0.31211151     0.92300
O445        O  0.09356328  0.84977547  0.31142455    -0.83100
C446        C  0.08431302  0.83491647  0.31702229     0.92400
O447        O  0.19582066  0.90872388  0.34872431    -0.83100
Mg448      Mg  0.16418461  0.86023419  0.40706523     1.58200
O449        O  0.10604522  0.89274862  0.31371019    -0.81400
O450        O  0.15752482  0.80729167  0.40788908    -0.83100
C451        C  0.00393467  0.75194003  0.53937157     0.79900
N452        N  0.98936037  0.74450473  0.52813758    -0.78400
C453        C  0.99071862  0.74511348  0.50842731     0.82300
N454        N  0.00633677  0.75351213  0.50014704    -0.78400
C455        C  0.02074805  0.76113473  0.51081698     0.82400
N456        N  0.01969687  0.76034508  0.53054669    -0.80100
C457        C  0.25087646  0.04035308  0.49319109     0.79900
N458        N  0.26270253  0.02947799  0.50463155    -0.78400
C459        C  0.26346311  0.01001916  0.50230542     0.82300
N460        N  0.25232459  0.00157020  0.48874194    -0.78400
C461        C  0.24029684  0.01183414  0.47750463     0.82400
N462        N  0.23932847  0.03138100  0.47972115    -0.80100
C463        C  0.24976048  0.68167095  0.50913549     0.79900
N464        N  0.24130220  0.69239485  0.49474711    -0.78400
C465        C  0.24085777  0.71202756  0.49620404     0.82300
N466        N  0.24850008  0.72052760  0.51199517    -0.78400
C467        C  0.25682050  0.71033767  0.52626237     0.82400
N468        N  0.25765437  0.69083649  0.52485391    -0.80100
C469        C  0.99596628  0.75447758  0.18519210     0.79900
N470        N  0.01120940  0.76254167  0.19505783    -0.78400
C471        C  0.01083672  0.76319149  0.21484427     0.82300
N472        N  0.99527580  0.75617925  0.22442010    -0.78400
C473        C  0.98017447  0.74828473  0.21502025     0.82400
N474        N  0.98049931  0.74721560  0.19534591    -0.80100
C475        C  0.18247844  0.00379084  0.74244502     0.79900
N476        N  0.19122399  0.01831995  0.75271783    -0.78400
C477        C  0.21086895  0.01949820  0.75351171     0.82300
N478        N  0.22158734  0.00614797  0.74438100    -0.78400
C479        C  0.21331433  0.99165831  0.73427041     0.82400
N480        N  0.19368168  0.99047705  0.73316271    -0.80100
C481        C  0.74913814  0.18102508  0.00057909     0.79900
N482        N  0.75478959  0.19064635  0.01701542    -0.78400
C483        C  0.75472859  0.21034365  0.01735895     0.82300
N484        N  0.74935802  0.22013798  0.00136463    -0.78400
C485        C  0.74387535  0.21094622  0.98504256     0.82400
N486        N  0.74353043  0.19133835  0.98467526    -0.80100
C487        C  0.49125221  0.75924379  0.81879420     0.79900
N488        N  0.47649676  0.76732026  0.80850708    -0.78400
C489        C  0.47633057  0.76615205  0.78878404     0.82300
N490        N  0.49089986  0.75721000  0.77950260    -0.78400
C491        C  0.50567367  0.74924659  0.78933886     0.82400
N492        N  0.50583116  0.75015503  0.80908996    -0.80100
C493        C  0.49982054  0.74549417  0.46728937     0.79900
N494        N  0.51388850  0.73651412  0.47793077    -0.78400
C495        C  0.51395816  0.73826621  0.49766755     0.82300
N496        N  0.50053996  0.74922594  0.50636283    -0.78400
C497        C  0.48672720  0.75822306  0.49618589     0.82400
N498        N  0.48605826  0.75606763  0.47662123    -0.80100
C499        C  0.74236643  0.81638411  0.49637323     0.79900
N500        N  0.73357038  0.80650540  0.51122838    -0.78400
C501        C  0.73317237  0.78690878  0.51117183     0.82300
N502        N  0.74129369  0.77734157  0.49631392    -0.78400
C503        C  0.75003401  0.78667025  0.48152076     0.82400
N504        N  0.75081940  0.80633933  0.48152590    -0.80100
C505        C  0.46368595  0.50805060  0.76508076     0.79900
N506        N  0.47426508  0.52218234  0.75591646    -0.78400
C507        C  0.49388166  0.52244429  0.75740872     0.82300
N508        N  0.50273359  0.50884852  0.76808095    -0.78400
C509        C  0.49262182  0.49481081  0.77723690     0.82400
N510        N  0.47302452  0.49413726  0.77551621    -0.80100
C511        C  0.81657490  0.50117636  0.75189321     0.79900
N512        N  0.80535280  0.48767730  0.76123266    -0.78400
C513        C  0.78573174  0.48880773  0.76056818     0.82300
N514        N  0.77755338  0.50344822  0.75081200    -0.78400
C515        C  0.78824449  0.51692149  0.74152460     0.82400
N516        N  0.80790947  0.51584553  0.74190313    -0.80100
C517        C  0.73639470  0.46362030  0.49875392     0.79900
N518        N  0.72547711  0.47404872  0.51155771    -0.78400
C519        C  0.72576455  0.49367175  0.51075628     0.82300
N520        N  0.73739717  0.50261768  0.49786658    -0.78400
C521        C  0.74863842  0.49282440  0.48544506     0.82400
N522        N  0.74796159  0.47315763  0.48557198    -0.80100
C523        C  0.68359205  0.50572053  0.25587595     0.79900
N524        N  0.69424168  0.49029783  0.24978348    -0.78400
C525        C  0.71386896  0.49043165  0.25169763     0.82300
N526        N  0.72269584  0.50604512  0.25938415    -0.78400
C527        C  0.71254518  0.52150709  0.26519659     0.82400
N528        N  0.69292517  0.52141675  0.26356164    -0.80100
O529        O  0.12456000  0.35761694  0.67933246    -0.88700
C530        C  0.09835378  0.35480363  0.62622581     0.87400
Mg531      Mg  0.14158531  0.38201131  0.68866285     1.58100
O532        O  0.13945181  0.32641156  0.63076776    -0.88400
O533        O  0.12767961  0.32639108  0.67471407    -0.75700
C534        C  0.19557434  0.40326931  0.61121716     0.92400
O535        O  0.10671493  0.39206614  0.65422110    -0.75500
O536        O  0.18897183  0.40988817  0.62701602    -0.83100
Mg537      Mg  0.09670455  0.36332271  0.66748329     1.58000
C538        C  0.18112175  0.32407242  0.58903139     0.92300
O539        O  0.08437936  0.33634750  0.68162678    -0.81300
H540        H  0.15430768  0.30590737  0.64449894    -0.06700
C541        C  0.14647142  0.37859001  0.60527583     0.87300
O542        O  0.16910669  0.36623217  0.67870838    -0.75800
O543        O  0.10417879  0.34804415  0.64174766    -0.88600
O544        O  0.16305035  0.32217393  0.59193575    -0.81400
C545        C  0.10284545  0.30665608  0.59883690     0.92400
C546        C  0.08042875  0.31862256  0.67895062     0.92300
Mg547      Mg  0.18110624  0.35729116  0.62150541     1.58000
O548        O  0.19281572  0.38564823  0.60628717    -0.81300
O549        O  0.17078101  0.32874426  0.63578050    -0.75600
O550        O  0.09731659  0.30917420  0.61642558    -0.81400
O551        O  0.08799144  0.37983445  0.69398058    -0.83100
O552        O  0.17918057  0.40979332  0.67156200    -0.81400
C553        C  0.15470945  0.31969980  0.63716869     0.86700
O554        O  0.17310302  0.37214326  0.64752766    -0.88600
O555        O  0.15267467  0.36282543  0.61082229    -0.88700
O556        O  0.14786521  0.39370672  0.61560355    -0.75700
Mg557      Mg  0.11304204  0.31872504  0.64557215     1.58000
O558        O  0.11901462  0.31296546  0.59277002    -0.83100
H559        H  0.13713264  0.34038508  0.69877250    -0.06800
O560        O  0.13775848  0.39380157  0.66021252    -0.88400
H561        H  0.12346337  0.41532295  0.64755230    -0.06700
H562        H  0.19191028  0.35671774  0.66295734    -0.06800
C563        C  0.12275495  0.40111848  0.65401129     0.86700
C564        C  0.12991311  0.34153311  0.68493915     0.87300
C565        C  0.17869360  0.36489426  0.66296573     0.87300
H566        H  0.13905089  0.37938390  0.59152563    -0.06800
O567        O  0.10811175  0.35345501  0.61064093    -0.75800
Mg568      Mg  0.16304877  0.40091979  0.64432755     1.58000
H569        H  0.08483502  0.36247306  0.62600778    -0.06800
C570        C  0.09561622  0.39451804  0.70197624     0.92300
O571        O  0.16286729  0.40619155  0.69913832    -0.83100
C572        C  0.17789224  0.41196528  0.68982649     0.92400
O573        O  0.08638179  0.30977774  0.66388116    -0.83100
Mg574      Mg  0.13639611  0.33822913  0.60242962     1.58200
O575        O  0.11372789  0.39851084  0.70020278    -0.81400
O576        O  0.19037336  0.33878926  0.59531380    -0.83100
O577        O  0.61046281  0.13008567  0.34355778    -0.88700
C578        C  0.66258422  0.12776291  0.31602537     0.87400
Mg579      Mg  0.60003488  0.15477200  0.35859652     1.58100
O580        O  0.65998122  0.10265069  0.35972965    -0.88400
O581        O  0.61601538  0.09953267  0.34959659    -0.75700
C582        C  0.67514928  0.18361952  0.41120865     0.92400
O583        O  0.63428314  0.16390849  0.32266848    -0.75500
O584        O  0.65940891  0.18886073  0.40353871    -0.83100
Mg585      Mg  0.62168112  0.13422215  0.31496058     1.58000
C586        C  0.70134053  0.10514055  0.40037517     0.92300
O587        O  0.60796132  0.10602105  0.30559766    -0.81300
H588        H  0.64799073  0.08226253  0.37656290    -0.06700
C589        C  0.68283639  0.15704550  0.36287278     0.87300
O590        O  0.61066346  0.14141369  0.38733171    -0.75800
O591        O  0.64770195  0.12027684  0.32275790    -0.88600
O592        O  0.69872051  0.10218021  0.38239710    -0.81400
C593        C  0.69146626  0.08059077  0.32499495     0.92400
C594        C  0.61057503  0.08801108  0.30372001     0.92300
Mg595      Mg  0.66800454  0.13655446  0.39907222     1.58000
O596        O  0.68125090  0.16629313  0.40961109    -0.81300
O597        O  0.65543628  0.10667528  0.39101842    -0.75600
O598        O  0.67361611  0.08073709  0.32000900    -0.81400
O599        O  0.59504043  0.14936902  0.30544754    -0.83100
O600        O  0.61494762  0.18496920  0.39484943    -0.81400
C601        C  0.65438207  0.09652098  0.37569422     0.86700
O602        O  0.64135368  0.14926889  0.39049305    -0.88600
O603        O  0.67805479  0.14128571  0.36998602    -0.88700
O604        O  0.67181068  0.17160411  0.36350013    -0.75700
Mg605      Mg  0.64481975  0.09175814  0.33492456     1.58000
O606        O  0.69780731  0.09089918  0.33878589    -0.83100
H607        H  0.59174413  0.11334051  0.35813905    -0.06800
O608        O  0.62761307  0.16801555  0.35354166    -0.88400
H609        H  0.64016989  0.18856758  0.33734896    -0.06700
H610        H  0.62688339  0.13419859  0.41069225    -0.06800
C611        C  0.63396298  0.17421545  0.33788806     0.86700
C612        C  0.60539131  0.11435956  0.35052367     0.87300
C613        C  0.62641520  0.14150969  0.39683884     0.87300
H614        H  0.69651767  0.15829237  0.35535090    -0.06800
O615        O  0.67809197  0.12897234  0.32578227    -0.75800
Mg616      Mg  0.64273691  0.17754753  0.37848443     1.58000
H617        H  0.66212844  0.13420945  0.30174629    -0.06800
C618        C  0.58568302  0.16347938  0.31226273     0.92300
O619        O  0.58861782  0.17964647  0.37722104    -0.83100
C620        C  0.59673468  0.18594585  0.39260059     0.92400
O621        O  0.62585117  0.07993361  0.31004392    -0.83100
Mg622      Mg  0.68740870  0.11627958  0.35494381     1.58200
O623        O  0.58711213  0.16845542  0.33010776    -0.81400
O624        O  0.69508361  0.12030181  0.40865960    -0.83100
C625        C  0.50194116  0.24861409  0.52995398     0.79900
N626        N  0.48949962  0.26075226  0.52069610    -0.78400
C627        C  0.48873531  0.26099157  0.50099465     0.82300
N628        N  0.50031835  0.24930940  0.49073482    -0.78400
C629        C  0.51275936  0.23722683  0.49949487     0.82400
N630        N  0.51367283  0.23686142  0.51926865    -0.80100
O631        O  0.35236568  0.39982304  0.36788514    -0.88700
C632        C  0.32686285  0.34742270  0.37266674     0.87400
Mg633      Mg  0.36449714  0.40981934  0.34110013     1.58100
O634        O  0.37214186  0.35141411  0.39419284    -0.88400
O635        O  0.36116709  0.39475011  0.39804601    -0.75700
C636        C  0.41684139  0.33606358  0.30926013     0.92400
O637        O  0.32819615  0.37617231  0.33635177    -0.75500
O638        O  0.40753255  0.35079904  0.30374454    -0.83100
Mg639      Mg  0.32361224  0.38865585  0.36693317     1.58000
C640        C  0.41382016  0.31187372  0.38973804     0.92300
O641        O  0.31725299  0.40206954  0.39634771    -0.81300
H642        H  0.38989969  0.36489784  0.41265980    -0.06700
C643        C  0.37170314  0.32709225  0.34057203     0.87300
O644        O  0.39460184  0.40046347  0.35149055    -0.75800
O645        O  0.33328998  0.36254152  0.37982017    -0.88600
O646        O  0.39595468  0.31361872  0.39355910    -0.81400
C647        C  0.33948046  0.31837456  0.41874424     0.92400
C648        C  0.31705096  0.39871589  0.41449637     0.92300
Mg649      Mg  0.40877246  0.34440438  0.35719287     1.58000
O650        O  0.41717886  0.33072068  0.32707707    -0.81300
O651        O  0.40261656  0.35755139  0.38721652    -0.75600
O652        O  0.33427996  0.33607769  0.41873893    -0.81400
O653        O  0.31244456  0.41569741  0.35297419    -0.83100
O654        O  0.39689450  0.39480454  0.30694543    -0.81400
C655        C  0.38820337  0.35802819  0.39870438     0.86700
O656        O  0.39792261  0.36986609  0.34400982    -0.88600
O657        O  0.37995030  0.33296641  0.35535947    -0.88700
O658        O  0.36995732  0.33760361  0.32557755    -0.75700
Mg659      Mg  0.34792023  0.36541005  0.40716333     1.58000
O660        O  0.35345851  0.31263650  0.40844379    -0.83100
H661        H  0.36787556  0.41908527  0.38294350    -0.06800
O662        O  0.35869932  0.38173201  0.32928717    -0.88400
H663        H  0.34045015  0.36938302  0.31049755    -0.06700
H664        H  0.41912258  0.38537950  0.35619375    -0.06800
C665        C  0.34245493  0.37569924  0.32467512     0.86700
C666        C  0.36058198  0.40523410  0.38288169     0.87300
C667        C  0.40456530  0.38516723  0.35055117     0.87300
H668        H  0.36505985  0.31292443  0.34072739    -0.06800
O669        O  0.33708201  0.33235423  0.37105068    -0.75800
Mg670      Mg  0.38288482  0.36695532  0.31716724     1.58000
H671        H  0.31232718  0.34724303  0.36697054    -0.06800
C672        C  0.31763858  0.42389681  0.33728813     0.92300
O673        O  0.38009470  0.42106413  0.31384780    -0.83100
C674        C  0.39453547  0.41291410  0.30587553     0.92400
O675        O  0.32389683  0.38314886  0.42149029    -0.83100
Mg676      Mg  0.36725302  0.32374167  0.38166669     1.58200
O677        O  0.33457387  0.42163706  0.33009776    -0.81400
O678        O  0.42118705  0.31872954  0.37415218    -0.83100
C679        C  0.53674891  0.50487952  0.25000316     0.79900
N680        N  0.52670899  0.49134161  0.26058901    -0.78400
C681        C  0.50707069  0.49099065  0.26024742     0.82300
N682        N  0.49761891  0.50358547  0.24896446    -0.78400
C683        C  0.50703795  0.51686346  0.23815493     0.82400
N684        N  0.52677571  0.51787156  0.23885169    -0.80100
C685        C  0.49843711  0.75923639  0.96580606     0.79900
N686        N  0.51368112  0.76835134  0.97465787    -0.78400
C687        C  0.51596575  0.76694960  0.99420956     0.82300
N688        N  0.50327598  0.75644841  0.00475749    -0.78400
C689        C  0.48808017  0.74744344  0.99644235     0.82400
N690        N  0.48546694  0.74893048  0.97689353    -0.80100
O691        O  0.34719574  0.60411677  0.13128691    -0.88700
C692        C  0.32200577  0.65642955  0.12731073     0.87400
Mg693      Mg  0.36076990  0.59401369  0.15726097     1.58100
O694        O  0.36587528  0.65273124  0.10294531    -0.88400
O695        O  0.35429504  0.60917707  0.10056928    -0.75700
C696        C  0.41607953  0.66782049  0.18483938     0.92400
O697        O  0.32575681  0.62843419  0.16385057    -0.75500
O698        O  0.40717545  0.65282374  0.19075137    -0.83100
Mg699      Mg  0.31887674  0.61550205  0.13391666     1.58000
C700        C  0.40811696  0.69335650  0.10550463     0.92300
O701        O  0.31034972  0.60143421  0.10525411    -0.81300
H702        H  0.38247815  0.63971538  0.08324922    -0.06700
C703        C  0.36888452  0.67676155  0.15679509     0.87300
O704        O  0.39029401  0.60330812  0.14447586    -0.75800
O705        O  0.32802669  0.64133706  0.12000714    -0.88600
O706        O  0.39018118  0.69125407  0.10197484    -0.81400
C707        C  0.33208267  0.68492184  0.08033734     0.92400
C708        C  0.30910430  0.60457523  0.08711240     0.92300
Mg709      Mg  0.40454348  0.65995167  0.13767857     1.58000
O710        O  0.41506181  0.67349823  0.16717703    -0.81300
O711        O  0.39664557  0.64704438  0.10792626    -0.75600
O712        O  0.32666289  0.66719640  0.08078199    -0.81400
O713        O  0.30815360  0.58908126  0.14908115    -0.83100
O714        O  0.39572262  0.60901894  0.18860569    -0.81400
C715        C  0.38160896  0.64642012  0.09735672     0.86700
O716        O  0.39438584  0.63404860  0.15130720    -0.88600
O717        O  0.37606052  0.67113037  0.14137800    -0.88700
O718        O  0.36833932  0.66618298  0.17186710    -0.75700
Mg719      Mg  0.34078662  0.63823408  0.09184371     1.58000
O720        O  0.34660372  0.69089123  0.08984082    -0.83100
H721        H  0.36172840  0.58502587  0.11535207    -0.06800
O722        O  0.35634730  0.62215978  0.16921193    -0.88400
H723        H  0.33967036  0.63520763  0.18883587    -0.06700
H724        H  0.41451067  0.61863497  0.13762626    -0.06800
C725        C  0.34062883  0.62863910  0.17467018     0.86700
C726        C  0.35451157  0.59876839  0.11580794     0.87300
C727        C  0.40040609  0.61875132  0.14439458     0.87300
H728        H  0.36224867  0.69079689  0.15724335    -0.06800
O729        O  0.33239856  0.67161145  0.12827352    -0.75800
Mg730      Mg  0.38147366  0.63684813  0.17929351     1.58000
H731        H  0.30775220  0.65646988  0.13375948    -0.06800
C732        C  0.31364671  0.58132946  0.16478989     0.92300
O733        O  0.37841418  0.58245913  0.18326316    -0.83100
C734        C  0.39340637  0.59088244  0.19013252     0.92400
O735        O  0.31570903  0.62011200  0.07950997    -0.83100
Mg736      Mg  0.36199065  0.68035250  0.11576129     1.58200
O737        O  0.33110507  0.58303647  0.17084028    -0.81400
O738        O  0.41572856  0.68625414  0.12074305    -0.83100
C739        C  0.25743104  0.53571541  0.50854117     0.79900
N740        N  0.24740192  0.52517504  0.52216047    -0.78400
C741        C  0.24885997  0.50558319  0.52245743     0.82300
N742        N  0.26073738  0.49686459  0.50975741    -0.78400
C743        C  0.27092786  0.50696449  0.49645628     0.82400
N744        N  0.26901130  0.52645376  0.49547996    -0.80100
O745        O  0.60619356  0.86470036  0.15459588    -0.88700
C746        C  0.65961987  0.86953615  0.17826028     0.87400
Mg747      Mg  0.59538897  0.83891788  0.14169326     1.58100
O748        O  0.65400437  0.89241298  0.13375996    -0.88400
O749        O  0.61094346  0.89507591  0.14662782    -0.75700
C750        C  0.66732335  0.80961868  0.08585253     0.92400
O751        O  0.63114525  0.83270584  0.17614552    -0.75500
O752        O  0.65236840  0.80424858  0.09513852    -0.83100
Mg753      Mg  0.61860753  0.86251155  0.18273691     1.58000
C754        C  0.69198246  0.89007884  0.09001239     0.92300
O755        O  0.60488769  0.89114601  0.19076136    -0.81300
H756        H  0.64017135  0.91141940  0.11708699    -0.06700
C757        C  0.67781249  0.83919246  0.13174838     0.87300
O758        O  0.60386204  0.85090892  0.11163096    -0.75800
O759        O  0.64418311  0.87627377  0.17238750    -0.88600
O760        O  0.69084530  0.89330761  0.10810976    -0.81400
C761        C  0.68745578  0.91629710  0.16600644     0.92400
C762        C  0.60800876  0.90924052  0.19144022     0.92300
Mg763      Mg  0.65987416  0.85704303  0.09561966     1.58000
O764        O  0.67320410  0.82722639  0.08588561    -0.81300
O765        O  0.64705175  0.88664521  0.10320376    -0.75600
O766        O  0.67002306  0.91515937  0.17220870    -0.81400
O767        O  0.59253274  0.84719859  0.19474308    -0.83100
O768        O  0.60882200  0.80692175  0.10683255    -0.81400
C769        C  0.64699740  0.89750290  0.11806158     0.86700
O770        O  0.63439569  0.84366190  0.10699750    -0.88600
O771        O  0.67223181  0.85430299  0.12404966    -0.88700
O772        O  0.66705518  0.82425770  0.13299448    -0.75700
Mg773      Mg  0.64056284  0.90394772  0.15909581     1.58000
O774        O  0.69313259  0.90708802  0.15120932    -0.83100
H775        H  0.58642109  0.88008461  0.14040562    -0.06800
O776        O  0.62345688  0.82690172  0.14580209    -0.88400
H777        H  0.63688797  0.80755707  0.16241900    -0.06700
H778        H  0.61855021  0.85679228  0.08676814    -0.06800
C779        C  0.63048532  0.82167647  0.16144413     0.86700
C780        C  0.60050101  0.87988339  0.14714707     0.87300
C781        C  0.61899288  0.85048049  0.10110926     0.87300
H782        H  0.69200854  0.83891428  0.13823540    -0.06800
O783        O  0.67455915  0.86870848  0.16750853    -0.75800
Mg784      Mg  0.63724322  0.81628400  0.12063711     1.58000
H785        H  0.66022022  0.86356539  0.19274065    -0.06800
C786        C  0.58428685  0.83172156  0.18922723     0.92300
O787        O  0.58304170  0.81303027  0.12503325    -0.83100
C788        C  0.59070064  0.80603077  0.10976984     0.92400
O789        O  0.62346728  0.91672824  0.18448240    -0.83100
Mg790      Mg  0.68196163  0.88035190  0.13710701     1.58200
O791        O  0.58517849  0.82602490  0.17158653    -0.81400
O792        O  0.68529243  0.87453432  0.08259443    -0.83100
C793        C  0.74524026  0.67921718  0.99714497     0.79900
N794        N  0.75321835  0.68901771  0.98173540    -0.78400
C795        C  0.75347891  0.70871802  0.98175777     0.82300
N796        N  0.74619790  0.71831535  0.99706257    -0.78400
C797        C  0.73838395  0.70890186  0.01235138     0.82400
N798        N  0.73774098  0.68934163  0.01232747    -0.80100
O799        O  0.86047507  0.17234531  0.61981796    -0.88700
C800        C  0.85395440  0.12172239  0.59106868     0.87400
Mg801      Mg  0.88624943  0.18032719  0.63500267     1.58100
O802        O  0.82831530  0.12489935  0.63437023    -0.88400
O803        O  0.82933591  0.16900893  0.62537637    -0.75700
C804        C  0.90630283  0.10335603  0.68774411     0.92400
O805        O  0.89232238  0.14716049  0.59829276    -0.75500
O806        O  0.91349212  0.11842187  0.68003788    -0.83100
Mg807      Mg  0.86375216  0.16216532  0.59088163     1.58000
C808        C  0.82630062  0.08264031  0.67443271     0.92300
O809        O  0.83685693  0.17814421  0.58166003    -0.81300
H810        H  0.80870492  0.13809619  0.65087692    -0.06700
C811        C  0.88024397  0.09769505  0.63838153     0.87300
O812        O  0.87170706  0.17063783  0.66360571    -0.75800
O813        O  0.84770801  0.13692141  0.59794040    -0.88600
O814        O  0.82449520  0.08589015  0.65639678    -0.81400
C815        C  0.80498874  0.09570716  0.59792922     0.92400
C816        C  0.81867510  0.17672401  0.57948344     0.92300
Mg817      Mg  0.86048559  0.11395732  0.67426263     1.58000
O818        O  0.88853982  0.09853132  0.68538791    -0.81300
O819        O  0.83211495  0.12881536  0.66574733    -0.75600
O820        O  0.80716257  0.11363456  0.59368401    -0.81400
O821        O  0.88081386  0.18821460  0.58232898    -0.83100
O822        O  0.91427102  0.16230672  0.67064345    -0.81400
C823        C  0.82237122  0.13071126  0.65024965     0.86700
O824        O  0.87608403  0.13938703  0.66599098    -0.88600
O825        O  0.86489831  0.10392149  0.64505150    -0.88700
O826        O  0.89594277  0.10731924  0.63932571    -0.75700
Mg827      Mg  0.81933395  0.14131669  0.60978057     1.58000
O828        O  0.81308757  0.08818992  0.61256905    -0.83100
H829        H  0.84538076  0.19176001  0.63477837    -0.06800
O830        O  0.89656566  0.15181219  0.62949075    -0.88400
H831        H  0.91605719  0.13839730  0.61299161    -0.06700
H832        H  0.86280909  0.15455131  0.68665201    -0.06800
C833        C  0.90235166  0.14571262  0.61365663     0.86700
C834        C  0.84517456  0.17837031  0.62679223     0.87300
C835        C  0.87007168  0.15473753  0.67275387     0.87300
H836        H  0.88015943  0.08397796  0.63097460    -0.06800
O837        O  0.85339776  0.10595274  0.60049600    -0.75800
Mg838      Mg  0.90437443  0.13567025  0.65440640     1.58000
H839        H  0.86075569  0.12202627  0.57693685    -0.06800
C840        C  0.89652129  0.19480702  0.58915574     0.92300
O841        O  0.91221280  0.18950348  0.65385482    -0.83100
C842        C  0.91722451  0.18034121  0.66908465     0.92400
O843        O  0.80928091  0.16184376  0.58534311    -0.83100
Mg844      Mg  0.83941453  0.09678725  0.62932701     1.58200
O845        O  0.90156059  0.19180733  0.60675825    -0.81400
O846        O  0.84128035  0.08825271  0.68367692    -0.83100
C847        C  0.68763180  0.99782998  0.74617842     0.79900
N848        N  0.69748428  0.98299845  0.75460960    -0.78400
C849        C  0.71713656  0.98367045  0.75551827     0.82300
N850        N  0.72676885  0.99905917  0.74824015    -0.78400
C851        C  0.71733712  0.01383428  0.73988584     0.82400
N852        N  0.69769924  0.01321886  0.73869139    -0.80100
O853        O  0.85592316  0.82399436  0.87592701    -0.88700
C854        C  0.85280015  0.87589136  0.90334040     0.87400
Mg855      Mg  0.88103546  0.81486643  0.86021380     1.58100
O856        O  0.82587883  0.87296104  0.86095872    -0.88400
O857        O  0.82492290  0.82887093  0.87090285    -0.75700
C858        C  0.90468911  0.89149694  0.80668095     0.92400
O859        O  0.88970035  0.84881267  0.89622393    -0.75500
O860        O  0.91112146  0.87630817  0.81453431    -0.83100
Mg861      Mg  0.86046201  0.83528873  0.90439040     1.58000
C862        C  0.82572788  0.91510849  0.82013021     0.92300
O863        O  0.83297609  0.82076596  0.91492771    -0.81300
H864        H  0.80542914  0.86010605  0.84499374    -0.06700
C865        C  0.87887623  0.89817866  0.85597974     0.87300
O866        O  0.86665089  0.82509871  0.83181800    -0.75800
O867        O  0.84580666  0.86078663  0.89675335    -0.88600
O868        O  0.82343142  0.91222782  0.83822828    -0.81400
C869        C  0.80581645  0.90334254  0.89828060     0.92400
C870        C  0.81499280  0.82288300  0.91782602     0.92300
Mg871      Mg  0.85823365  0.88219721  0.82044091     1.58000
O872        O  0.88709446  0.89671489  0.80890192    -0.81300
O873        O  0.82913657  0.86839462  0.82958659    -0.75600
O874        O  0.80746235  0.88544438  0.90258701    -0.81400
O875        O  0.87640550  0.80925005  0.91350443    -0.83100
O876        O  0.91040527  0.83233450  0.82457239    -0.81400
C877        C  0.81947040  0.86705949  0.84527687     0.86700
O878        O  0.87261507  0.85619615  0.82880297    -0.88600
O879        O  0.86319123  0.89265966  0.84930630    -0.88700
O880        O  0.89391207  0.88783327  0.85515659    -0.75700
Mg881      Mg  0.81687986  0.85722473  0.88627790     1.58000
O882        O  0.81282081  0.91041804  0.88274669    -0.83100
H883        H  0.83922554  0.80524334  0.86149817    -0.06800
O884        O  0.89284629  0.84321889  0.86513548    -0.88400
H885        H  0.91374410  0.85577418  0.88073947    -0.06700
H886        H  0.85816878  0.84113245  0.80873720    -0.06800
C887        C  0.89949511  0.84925708  0.88062928     0.86700
C888        C  0.84008650  0.81870824  0.86932196     0.87300
C889        C  0.86568555  0.84092462  0.82245891     0.87300
H890        H  0.87963663  0.91189587  0.86335728    -0.06800
O891        O  0.85250149  0.89163225  0.89387453    -0.75800
Mg892      Mg  0.90112238  0.85923946  0.84023081     1.58000
H893        H  0.85994167  0.87554028  0.91725873    -0.06800
C894        C  0.89135398  0.80122757  0.90673161     0.92300
O895        O  0.90621923  0.80473619  0.84046736    -0.83100
C896        C  0.91261345  0.81421924  0.82583055     0.92400
O897        O  0.80624343  0.83782786  0.91169652    -0.83100
Mg898      Mg  0.83832017  0.90087752  0.86530065     1.58200
O899        O  0.89604866  0.80273022  0.88873845    -0.81400
O900        O  0.84033840  0.90848053  0.81105791    -0.83100
O901        O  0.12661862  0.64009951  0.82952042    -0.88700
C902        C  0.10066006  0.64297048  0.88177867     0.87400
Mg903      Mg  0.14274228  0.61545654  0.82066270     1.58100
O904        O  0.14135529  0.67247569  0.87666553    -0.88400
O905        O  0.13020848  0.67146042  0.83275964    -0.75700
C906        C  0.20061975  0.59868395  0.89487267     0.92400
O907        O  0.10878197  0.60636253  0.85570962    -0.75500
O908        O  0.19357839  0.59162168  0.87945550    -0.83100
Mg909      Mg  0.09872616  0.63453723  0.84123234     1.58000
C910        C  0.18310317  0.67689487  0.91708915     0.92300
O911        O  0.08714799  0.66087633  0.82618796    -0.81300
H912        H  0.15562320  0.69354909  0.86270409    -0.06700
C913        C  0.15122935  0.62075583  0.90339208     0.87300
O914        O  0.17078148  0.63215584  0.82844565    -0.75800
O915        O  0.10589446  0.65052266  0.86631684    -0.88600
O916        O  0.16486332  0.67732531  0.91488915    -0.81400
C917        C  0.10448200  0.69095835  0.90843794     0.92400
C918        C  0.08359670  0.67874215  0.82754155     0.92300
Mg919      Mg  0.18400787  0.64352518  0.88507003     1.58000
O920        O  0.19722954  0.61604170  0.90011598    -0.81300
O921        O  0.17262546  0.67132515  0.87092964    -0.75600
O922        O  0.10010193  0.69026798  0.89037351    -0.81400
O923        O  0.09003302  0.61767333  0.81512177    -0.83100
O924        O  0.18122196  0.59059790  0.83630886    -0.81400
C925        C  0.15639870  0.67977371  0.87000999     0.86700
O926        O  0.17557845  0.62786423  0.85970053    -0.88600
O927        O  0.15606652  0.63657439  0.89651905    -0.88700
O928        O  0.15267901  0.60530376  0.89368505    -0.75700
Mg929      Mg  0.11543139  0.67986861  0.86153263     1.58000
O930        O  0.11960755  0.68327609  0.91518374    -0.83100
H931        H  0.13951856  0.65650808  0.80930858    -0.06800
O932        O  0.13989277  0.60493611  0.84972734    -0.88400
H933        H  0.12564281  0.58400360  0.86395677    -0.06700
H934        H  0.19396511  0.64294198  0.84297506    -0.06800
C935        C  0.12491258  0.59775554  0.85660014     0.86700
C936        C  0.13223382  0.65592942  0.82318949     0.87300
C937        C  0.18075541  0.63453282  0.84379026     0.87300
H938        H  0.14497853  0.62015957  0.91776859    -0.06800
O939        O  0.11106685  0.64350333  0.89692469    -0.75800
Mg940      Mg  0.16628370  0.59884120  0.86409379     1.58000
H941        H  0.08723678  0.63487741  0.88214377    -0.06800
C942        C  0.09699351  0.60192765  0.80918427     0.92300
O943        O  0.16248325  0.59099806  0.81030034    -0.83100
C944        C  0.17856455  0.58728409  0.81842848     0.92400
O945        O  0.08931729  0.68850459  0.84219679    -0.83100
Mg946      Mg  0.13870842  0.65993170  0.90495559     1.58200
O947        O  0.11481821  0.59773632  0.81159126    -0.81400
O948        O  0.19305632  0.66285792  0.91069006    -0.83100
C949        C  0.99824985  0.74535217  0.68646623     0.79900
N950        N  0.98295925  0.75272830  0.69653232    -0.78400
C951        C  0.98267181  0.75198440  0.71627568     0.82300
N952        N  0.99772614  0.74422819  0.72584030    -0.78400
C953        C  0.01305042  0.73704365  0.71619204     0.82400
N954        N  0.01334009  0.73748372  0.69642862    -0.80100
C955        C  0.96270597  0.49523960  0.76279370     0.79900
N956        N  0.97329396  0.48087647  0.75430713    -0.78400
C957        C  0.99299907  0.48135808  0.75525885     0.82300
N958        N  0.00183200  0.49581262  0.76494811    -0.78400
C959        C  0.99174157  0.50999662  0.77348050     0.82400
N960        N  0.97212959  0.50998044  0.77211155    -0.80100
C961        C  0.31738876  0.50030380  0.75622856     0.79900
N962        N  0.30861400  0.48369676  0.74979978    -0.78400
C963        C  0.28894329  0.48248159  0.74894153     0.82300
N964        N  0.27829333  0.49783287  0.75404700    -0.78400
C965        C  0.28662085  0.51438491  0.76022188     0.82400
N966        N  0.30620925  0.51560839  0.76147944    -0.80100
C967        C  0.74539208  0.96267375  0.49615691     0.79900
N968        N  0.75417404  0.97314833  0.51061069    -0.78400
C969        C  0.75487613  0.99278300  0.50943801     0.82300
N970        N  0.74645407  0.00163832  0.49430562    -0.78400
C971        C  0.73758301  0.99171353  0.48010388     0.82400
N972        N  0.73715886  0.97211981  0.48081586    -0.80100
C973        C  0.00311933  0.25575489  0.45980445     0.79900
N974        N  0.98879007  0.24577393  0.46932713    -0.78400
C975        C  0.98888375  0.24451071  0.48898201     0.82300
N976        N  0.00276941  0.25375453  0.49902057    -0.78400
C977        C  0.01683706  0.26406663  0.49016090     0.82400
N978        N  0.01734641  0.26486600  0.47033614    -0.80100
C979        C  0.98984974  0.24664008  0.81536531     0.79900
N980        N  0.00570302  0.25439458  0.80614058    -0.78400
C981        C  0.00577160  0.25638366  0.78647703     0.82300
N982        N  0.99017438  0.25079782  0.77625026    -0.78400
C983        C  0.97442173  0.24312281  0.78495254     0.82400
N984        N  0.97423305  0.24081072  0.80460316    -0.80100
C985        C  0.49883042  0.74694216  0.32023833     0.79900
N986        N  0.48394606  0.73914142  0.30970802    -0.78400
C987        C  0.48425573  0.74011503  0.28997884     0.82300
N988        N  0.49947921  0.74845496  0.28095442    -0.78400
C989        C  0.51442684  0.75601967  0.29097457     0.82400
N990        N  0.51411655  0.75543802  0.31073497    -0.80100
C991        C  0.82483034  0.99741592  0.24336662     0.79900
N992        N  0.81437411  0.01168487  0.25214118    -0.78400
C993        C  0.79463810  0.01092682  0.25182188     0.82300
N994        N  0.78569313  0.99592829  0.24314534    -0.78400
C995        C  0.79565680  0.98178237  0.23451273     0.82400
N996        N  0.81529655  0.98253746  0.23439924    -0.80100
C997        C  0.25113423  0.81844237  0.99800888     0.79900
N998        N  0.25858979  0.80782996  0.01300410    -0.78400
C999        C  0.25887129  0.78816763  0.01184822     0.82300
N1000       N  0.25215077  0.77945012  0.99575566    -0.78400
C1001       C  0.24489007  0.78954342  0.98082792     0.82400
N1002       N  0.24413901  0.80911340  0.98195163    -0.80100
C1003       C  0.74457874  0.31776845  0.50332889     0.79900
N1004       N  0.73820760  0.30640121  0.48836116    -0.78400
C1005       C  0.74150642  0.28703267  0.48863415     0.82300
N1006       N  0.75109126  0.27934083  0.50376597    -0.78400
C1007       C  0.75742339  0.29019433  0.51863600     0.82400
N1008       N  0.75417219  0.30951933  0.51855527    -0.80100
C1009       C  0.18124158  0.50322958  0.25602891     0.79900
N1010       N  0.19116994  0.49036571  0.26725975    -0.78400
C1011       C  0.21084597  0.49106427  0.26780732     0.82300
N1012       N  0.22042680  0.50443785  0.25718995    -0.78400
C1013       C  0.21100437  0.51725973  0.24599450     0.82400
N1014       N  0.19131901  0.51660402  0.24526887    -0.80100
C1015       C  0.25676430  0.46308829  0.99314972     0.79900
N1016       N  0.24606744  0.47350534  0.98018808    -0.78400
C1017       C  0.24547452  0.49308394  0.98158255     0.82300
N1018       N  0.25567198  0.50201858  0.99557573    -0.78400
C1019       C  0.26649288  0.49216616  0.00830086     0.82400
N1020       N  0.26718330  0.47257196  0.00715925    -0.80100
C1021       C  0.46705419  0.99978710  0.24659376     0.79900
N1022       N  0.47732616  0.01234328  0.25802442    -0.78400
C1023       C  0.49699354  0.01171757  0.25814182     0.82300
N1024       N  0.50614979  0.99932346  0.24637787    -0.78400
C1025       C  0.49637725  0.98717821  0.23471505     0.82400
N1026       N  0.47670076  0.98703898  0.23500836    -0.80100
C1027       C  0.49887144  0.24445401  0.18100752     0.79900
N1028       N  0.48459012  0.25505302  0.18952881    -0.78400
C1029       C  0.48417844  0.25711480  0.20916695     0.82300
N1030       N  0.49795398  0.24874188  0.22001605    -0.78400
C1031       C  0.51220733  0.23829426  0.21195897     0.82400
N1032       N  0.51265970  0.23603500  0.19233330    -0.80100
C1033       C  0.25266928  0.18633290  0.50343124     0.79900
N1034       N  0.26316332  0.19699269  0.49021252    -0.78400
C1035       C  0.26364159  0.21662799  0.49152357     0.82300
N1036       N  0.25445723  0.22516019  0.50639065    -0.78400
C1037       C  0.24433202  0.21507324  0.51969481     0.82400
N1038       N  0.24305810  0.19550354  0.51813486    -0.80100
C1039       C  0.99863222  0.74874749  0.03803926     0.79900
N1040       N  0.98300049  0.75312217  0.02663305    -0.78400
C1041       C  0.98451812  0.75227628  0.00687471     0.82300
N1042       N  0.00160861  0.74747663  0.99887916    -0.78400
C1043       C  0.01708576  0.74313221  0.00974185     0.82400
N1044       N  0.01563266  0.74357872  0.02938392    -0.80100
C1045       C  0.74389555  0.03448515  0.99991920     0.79900
N1046       N  0.73376916  0.02509531  0.01429237    -0.78400
C1047       C  0.73380422  0.00547231  0.01523052     0.82300
N1048       N  0.74409513  0.99540789  0.00219096    -0.78400
C1049       C  0.75422471  0.00426615  0.98795250     0.82400
N1050       N  0.75399135  0.02388113  0.98661063    -0.80100
C1051       C  0.03583998  0.99640655  0.74332785     0.79900
N1052       N  0.02580585  0.98114931  0.75141834    -0.78400
C1053       C  0.00607853  0.98129685  0.75167384     0.82300
N1054       N  0.99685244  0.99614384  0.74339972    -0.78400
C1055       C  0.00623194  0.01115092  0.73524865     0.82400
N1056       N  0.02589768  0.01155071  0.73544916    -0.80100
C1057       C  0.23687109  0.77824931  0.96463877    -0.01600
C1058       C  0.21705258  0.77862067  0.96098134    -0.09600
C1059       C  0.20791413  0.76298290  0.95191105    -0.18500
C1060       C  0.21844769  0.74640923  0.94644327     0.03900
C1061       C  0.23885533  0.74712607  0.94829025     0.18100
C1062       C  0.24782400  0.76296425  0.95730822    -0.19900
C1063       C  0.25006582  0.73154510  0.94221224    -0.21200
C1064       C  0.24136883  0.71494770  0.93483412    -0.19700
C1065       C  0.22122277  0.71330509  0.93384360     0.19500
C1066       C  0.20948574  0.72899018  0.93977319     0.01600
C1067       C  0.18926836  0.72630207  0.93947734    -0.14400
C1068       C  0.18104438  0.70909954  0.93296085    -0.12200
C1069       C  0.19254471  0.69388255  0.92634518     0.01200
C1070       C  0.21271430  0.69604430  0.92704314    -0.24300
H1071       H  0.20834300  0.79021651  0.96665722     0.09200
H1072       H  0.19250511  0.76398035  0.95005101     0.12700
H1073       H  0.26322422  0.76264562  0.96017649     0.11500
H1074       H  0.26566919  0.73208910  0.94343850     0.12600
H1075       H  0.25045312  0.70312408  0.93033472     0.11700
H1076       H  0.17937846  0.73717160  0.94436292     0.08800
H1077       H  0.16543129  0.70792804  0.93276426     0.12000
H1078       H  0.22181027  0.68442790  0.92203304     0.13900
C1079       C  0.21145028  0.58527015  0.90742346    -0.01600
C1080       C  0.22064537  0.56936006  0.89907287    -0.09600
C1081       C  0.22629498  0.55368010  0.91038342    -0.18500
C1082       C  0.22259325  0.55324231  0.93052925     0.03900
C1083       C  0.21449754  0.57001373  0.93911435     0.18100
C1084       C  0.20924629  0.58588390  0.92758159    -0.19900
C1085       C  0.21087690  0.57052990  0.95905855    -0.21200
C1086       C  0.21484236  0.55468026  0.97066462    -0.19700
C1087       C  0.22243916  0.53786557  0.96261542     0.19500
C1088       C  0.22637954  0.53676236  0.94243590     0.01600
C1089       C  0.23386938  0.51919906  0.93517930    -0.14400
C1090       C  0.23838133  0.50390668  0.94768995    -0.12200
C1091       C  0.23539913  0.50563850  0.96766439     0.01200
C1092       C  0.22675634  0.52236895  0.97485391    -0.24300
H1093       H  0.22264323  0.56862789  0.88350048     0.09200
H1094       H  0.23294485  0.54187125  0.90284647     0.12700
H1095       H  0.20203255  0.59805727  0.93414366     0.11500
H1096       H  0.20476422  0.58323339  0.96571711     0.12600
H1097       H  0.21191627  0.55557720  0.98608510     0.11700
H1098       H  0.23691400  0.51705632  0.92000721     0.08800
H1099       H  0.24536998  0.49125493  0.94189043     0.12000
H1100       H  0.22450160  0.52379179  0.99036507     0.13900
C1101       C  0.09144634  0.69959649  0.92289831    -0.01600
C1102       C  0.08463867  0.71838178  0.92106738    -0.09600
C1103       C  0.07430993  0.72687199  0.93628829    -0.18500
C1104       C  0.07025259  0.71658654  0.95369520     0.03900
C1105       C  0.07658784  0.69723783  0.95502037     0.18100
C1106       C  0.08728365  0.68911530  0.93986138    -0.19900
C1107       C  0.07215318  0.68604876  0.97141199    -0.21200
C1108       C  0.06105750  0.69351873  0.98641249    -0.19700
C1109       C  0.05457583  0.71253863  0.98564513     0.19500
C1110       C  0.05964355  0.72453732  0.96956108     0.01600
C1111       C  0.05347393  0.74385817  0.96987392    -0.14400
C1112       C  0.04117253  0.75036961  0.98442949    -0.12200
C1113       C  0.03487828  0.73805069  0.99931223     0.01200
C1114       C  0.04226765  0.71938512  0.00037144    -0.24300
H1115       H  0.08784000  0.72670998  0.90812628     0.09200
H1116       H  0.06955416  0.74142975  0.93393344     0.12700
H1117       H  0.09246165  0.67446167  0.94124038     0.11500
H1118       H  0.07695322  0.67125665  0.97244778     0.12600
H1119       H  0.05738420  0.68430241  0.99861910     0.11700
H1120       H  0.05739756  0.75411321  0.95874863     0.08800
H1121       H  0.03553769  0.76485624  0.98339965     0.12000
H1122       H  0.03721693  0.70973247  0.01174019     0.13900
C1123       C  0.27376292  0.53052846  0.76512463    -0.01600
C1124       C  0.25697269  0.53295041  0.75412057    -0.09600
C1125       C  0.24204241  0.54458389  0.76062062    -0.18500
C1126       C  0.24324773  0.55394596  0.77870911     0.03900
C1127       C  0.26105493  0.55291879  0.78899852     0.18100
C1128       C  0.27622031  0.54136340  0.78204936    -0.19900
C1129       C  0.26315679  0.56251385  0.80669486    -0.21200
C1130       C  0.24761166  0.57205278  0.81497515    -0.19700
C1131       C  0.22953735  0.57202453  0.80586827     0.19500
C1132       C  0.22715015  0.56341673  0.78738362     0.01600
C1133       C  0.20849619  0.56380514  0.77890248    -0.14400
C1134       C  0.19274466  0.57167721  0.78877160    -0.12200
C1135       C  0.19506732  0.57942113  0.80732185     0.01200
C1136       C  0.21365921  0.57997589  0.81550870    -0.24300
H1137       H  0.25499368  0.52503364  0.74073270     0.09200
H1138       H  0.22946601  0.54532194  0.75149338     0.12700
H1139       H  0.28923648  0.53962267  0.79056827     0.11500
H1140       H  0.27671927  0.56209797  0.81449670     0.12600
H1141       H  0.24954842  0.57886985  0.82897378     0.11700
H1142       H  0.20547078  0.55771942  0.76486853     0.08800
H1143       H  0.17864237  0.57135257  0.78200872     0.12000
H1144       H  0.21579865  0.58634752  0.82969799     0.13900
C1145       C  0.00299512  0.52554188  0.78280335    -0.01600
C1146       C  0.00209789  0.54447398  0.77589766    -0.09600
C1147       C  0.01707741  0.55764734  0.77985372    -0.18500
C1148       C  0.03348829  0.55208202  0.79074561     0.03900
C1149       C  0.03338902  0.53329005  0.79898331     0.18100
C1150       C  0.01823415  0.52034823  0.79501090    -0.19900
C1151       C  0.04886929  0.52712745  0.81036198    -0.21200
C1152       C  0.06480298  0.53905829  0.81338052    -0.19700
C1153       C  0.06575958  0.55739821  0.80495047     0.19500
C1154       C  0.05011779  0.56422757  0.79351304     0.01600
C1155       C  0.05192599  0.58284291  0.78528179    -0.14400
C1156       C  0.06802356  0.59451442  0.78917925    -0.12200
C1157       C  0.08306528  0.58793131  0.80096866     0.01200
C1158       C  0.08208432  0.56915594  0.80836427    -0.24300
H1159       H  0.99054823  0.54867794  0.76624503     0.09200
H1160       H  0.01574985  0.57182593  0.77360828     0.12700
H1161       H  0.01896762  0.50563468  0.80031833     0.11500
H1162       H  0.04877082  0.51284700  0.81677719     0.12600
H1163       H  0.07655754  0.53382113  0.82224343     0.11700
H1164       H  0.04094120  0.58896313  0.77616367     0.08800
H1165       H  0.06839912  0.60910481  0.78353293     0.12000
H1166       H  0.09344475  0.56416334  0.81789041     0.13900
C1167       C  0.07324547  0.68772495  0.81092822    -0.01600
C1168       C  0.06491938  0.67568388  0.79679688    -0.09600
C1169       C  0.05715355  0.68314924  0.77976712    -0.18500
C1170       C  0.05724312  0.70315470  0.77612935     0.03900
C1171       C  0.06516434  0.71548535  0.79063783     0.18100
C1172       C  0.07319170  0.70771759  0.80776364    -0.19900
C1173       C  0.06486649  0.73549516  0.78799315    -0.21200
C1174       C  0.05610270  0.74352141  0.77174330    -0.19700
C1175       C  0.04788619  0.73174286  0.75743400     0.19500
C1176       C  0.04906503  0.71137914  0.75897412     0.01600
C1177       C  0.04147329  0.70019149  0.74351664    -0.14400
C1178       C  0.03139176  0.70881381  0.72824562    -0.12200
C1179       C  0.02872895  0.72874124  0.72786393     0.01200
C1180       C  0.03762572  0.74017570  0.74207585    -0.24300
H1181       H  0.06461197  0.66018193  0.79873219     0.09200
H1182       H  0.05097062  0.67285813  0.76982740     0.12700
H1183       H  0.07966147  0.71721118  0.81844252     0.11500
H1184       H  0.07095710  0.74503388  0.79884409     0.12600
H1185       H  0.05548481  0.75907938  0.77050556     0.11700
H1186       H  0.04258129  0.68471666  0.74311592     0.08800
H1187       H  0.02449615  0.69975580  0.71746409     0.12000
H1188       H  0.03550655  0.75564633  0.74181000     0.13900
C1189       C  0.91878608  0.90362535  0.79573295    -0.01600
C1190       C  0.93612640  0.89558949  0.78901499    -0.09600
C1191       C  0.95102300  0.90719877  0.78152113    -0.18500
C1192       C  0.94922290  0.92743426  0.78077628     0.03900
C1193       C  0.93135434  0.93543834  0.78706035     0.18100
C1194       C  0.91632786  0.92354100  0.79415036    -0.19900
C1195       C  0.92876871  0.95537378  0.78688610    -0.21200
C1196       C  0.94361592  0.96761004  0.78100348    -0.19700
C1197       C  0.96136560  0.96023081  0.77490636     0.19500
C1198       C  0.96451839  0.94008159  0.77441016     0.01600
C1199       C  0.98281199  0.93369087  0.76762319    -0.14400
C1200       C  0.99708085  0.94687227  0.76113856    -0.12200
C1201       C  0.99355361  0.96669932  0.76146857     0.01200
C1202       C  0.97583430  0.97309751  0.76892748    -0.24300
H1203       H  0.93841336  0.88019297  0.79000723     0.09200
H1204       H  0.96397458  0.89998776  0.77693676     0.12700
H1205       H  0.90310366  0.92993595  0.79947044     0.11500
H1206       H  0.91524753  0.96158343  0.79161915     0.12600
H1207       H  0.94117025  0.98301961  0.78119583     0.11700
H1208       H  0.98630090  0.91860996  0.76673061     0.08800
H1209       H  0.01049550  0.94153830  0.75519189     0.12000
H1210       H  0.97293475  0.98843040  0.76945774     0.13900
C1211       C  0.79673229  0.91696697  0.91196745    -0.01600
C1212       C  0.79896373  0.91463653  0.93198524    -0.09600
C1213       C  0.79337279  0.92916991  0.94481214    -0.18500
C1214       C  0.78515111  0.94654661  0.93796483     0.03900
C1215       C  0.78232782  0.94851706  0.91766582     0.18100
C1216       C  0.78820479  0.93388325  0.90495310    -0.19900
C1217       C  0.77387522  0.96518684  0.91011960    -0.21200
C1218       C  0.76799411  0.97997378  0.92232397    -0.19700
C1219       C  0.77057739  0.97858062  0.94239378     0.19500
C1220       C  0.77943927  0.96193010  0.95047640     0.01600
C1221       C  0.78193936  0.96130204  0.97077302    -0.14400
C1222       C  0.77485977  0.97591087  0.98256777    -0.12200
C1223       C  0.76531921  0.99183029  0.97468011     0.01200
C1224       C  0.76374507  0.99342587  0.95451199    -0.24300
H1225       H  0.80582776  0.90186795  0.93771265     0.09200
H1226       H  0.79583104  0.92640535  0.95997884     0.12700
H1227       H  0.78647642  0.93582744  0.88944309     0.11500
H1228       H  0.77168007  0.96675486  0.89464068     0.12600
H1229       H  0.76127053  0.99255244  0.91601607     0.11700
H1230       H  0.78888382  0.94950594  0.97805907     0.08800
H1231       H  0.77625117  0.97441423  0.99815180     0.12000
H1232       H  0.75615465  0.00557788  0.94834402     0.13900
C1233       C  0.90384164  0.79119120  0.92104332    -0.01600
C1234       C  0.91866300  0.77883014  0.91541674    -0.09600
C1235       C  0.93094219  0.77069412  0.92931422    -0.18500
C1236       C  0.92899869  0.77501734  0.94936317     0.03900
C1237       C  0.91393436  0.78754058  0.95494225     0.18100
C1238       C  0.90146122  0.79516254  0.94094049    -0.19900
C1239       C  0.91167655  0.79285090  0.97441975    -0.21200
C1240       C  0.92444108  0.78638044  0.98851970    -0.19700
C1241       C  0.93959725  0.77412362  0.98359506     0.19500
C1242       C  0.94176601  0.76790787  0.96399780     0.01600
C1243       C  0.95679870  0.75503420  0.95984931    -0.14400
C1244       C  0.96974323  0.74947683  0.97416595    -0.12200
C1245       C  0.96840204  0.75646227  0.99325668     0.01200
C1246       C  0.95288005  0.76839373  0.99802511    -0.24300
H1247       H  0.92088365  0.77555987  0.90022856     0.09200
H1248       H  0.94212722  0.76148111  0.92383262     0.12700
H1249       H  0.89021814  0.80489740  0.94561456     0.11500
H1250       H  0.90017145  0.80243622  0.97873101     0.12600
H1251       H  0.92252619  0.79112403  0.00335781     0.11700
H1252       H  0.95907292  0.74909282  0.94561606     0.08800
H1253       H  0.98124750  0.73983526  0.97002070     0.12000
H1254       H  0.95156103  0.77381185  0.01269646     0.13900
C1255       C  0.92240715  0.80462002  0.80924404    -0.01600
C1256       C  0.93103987  0.81611289  0.79474006    -0.09600
C1257       C  0.93880736  0.80802089  0.77801846    -0.18500
C1258       C  0.93842101  0.78791828  0.77509949     0.03900
C1259       C  0.93016477  0.77614437  0.78997885     0.18100
C1260       C  0.92206851  0.78454761  0.80674849    -0.19900
C1261       C  0.93032385  0.75605406  0.78811537    -0.21200
C1262       C  0.93935572  0.74742336  0.77232670    -0.19700
C1263       C  0.94785573  0.75866586  0.75764343     0.19500
C1264       C  0.94669242  0.77907016  0.75833431     0.01600
C1265       C  0.95433354  0.78969821  0.74242879    -0.14400
C1266       C  0.96442714  0.78054365  0.72750269    -0.12200
C1267       C  0.96717635  0.76063301  0.72798171     0.01200
C1268       C  0.95829223  0.74969537  0.74270463    -0.24300
H1269       H  0.93169034  0.83165206  0.79617208     0.09200
H1270       H  0.94533964  0.81790336  0.76779270     0.12700
H1271       H  0.91541734  0.77547224  0.81776229     0.11500
H1272       H  0.92398441  0.74693246  0.79926521     0.12600
H1273       H  0.93991352  0.73183046  0.77172066     0.11700
H1274       H  0.95314787  0.80514243  0.74134926     0.08800
H1275       H  0.97125849  0.78921439  0.71628559     0.12000
H1276       H  0.96040475  0.73422520  0.74306644     0.13900
C1277       C  0.72874806  0.96847178  0.76455737    -0.01600
C1278       C  0.74183172  0.95836183  0.75300031    -0.09600
C1279       C  0.75742955  0.94871697  0.76127205    -0.18500
C1280       C  0.76072743  0.94935753  0.78149421     0.03900
C1281       C  0.74675672  0.95880476  0.79323127     0.18100
C1282       C  0.73090526  0.96811687  0.78470224    -0.19900
C1283       C  0.74918275  0.95972802  0.81333662    -0.21200
C1284       C  0.76530541  0.95171966  0.82207151    -0.19700
C1285       C  0.77953132  0.94273042  0.81091767     0.19500
C1286       C  0.77754857  0.94143189  0.79046085     0.01600
C1287       C  0.79265900  0.93255464  0.77993798    -0.14400
C1288       C  0.80871951  0.92481647  0.78942283    -0.12200
C1289       C  0.81027348  0.92561505  0.80965930     0.01200
C1290       C  0.79568770  0.93489419  0.82021855    -0.24300
H1291       H  0.74059454  0.95886754  0.73734425     0.09200
H1292       H  0.76704189  0.94152771  0.75139534     0.12700
H1293       H  0.72110010  0.97640179  0.79362506     0.11500
H1294       H  0.73862580  0.96688704  0.82236950     0.12600
H1295       H  0.76674824  0.95273104  0.83768672     0.11700
H1296       H  0.79243006  0.93124329  0.76437311     0.08800
H1297       H  0.81967203  0.91766221  0.78089981     0.12000
H1298       H  0.79669130  0.93573167  0.83588755     0.13900
C1299       C  0.92536203  0.19060303  0.68617697    -0.01600
C1300       C  0.92907442  0.21047315  0.68582116    -0.09600
C1301       C  0.93462760  0.22023373  0.70271280    -0.18500
C1302       C  0.93652762  0.21038197  0.72065045     0.03900
C1303       C  0.93311562  0.19018135  0.72082793     0.18100
C1304       C  0.92763936  0.18058684  0.70378528    -0.19900
C1305       C  0.93522806  0.17959671  0.73801226    -0.21200
C1306       C  0.94145292  0.18852476  0.75494449    -0.19700
C1307       C  0.94539439  0.20832902  0.75522142     0.19500
C1308       C  0.94228867  0.21966556  0.73826157     0.01600
C1309       C  0.94569290  0.23971070  0.73955219    -0.14400
C1310       C  0.95400057  0.24771574  0.75611941    -0.12200
C1311       C  0.95893006  0.23615635  0.77202849     0.01200
C1312       C  0.95356042  0.21667034  0.77196902    -0.24300
H1313       H  0.92739886  0.21858718  0.67250300     0.09200
H1314       H  0.93737805  0.23548014  0.70124615     0.12700
H1315       H  0.92476277  0.16520445  0.70440719     0.11500
H1316       H  0.93248935  0.16418814  0.73824805     0.12600
H1317       H  0.94356954  0.17980218  0.76781279     0.11700
H1318       H  0.94286681  0.24945399  0.72772208     0.08800
H1319       H  0.95798053  0.26286443  0.75593589     0.12000
H1320       H  0.95748156  0.20762766  0.78416303     0.13900
C1321       C  0.97421649  0.23378693  0.50028409    -0.01600
C1322       C  0.95446327  0.23636748  0.49721831    -0.09600
C1323       C  0.94101114  0.23031384  0.51127830    -0.18500
C1324       C  0.94710679  0.22166346  0.52889521     0.03900
C1325       C  0.96714528  0.21816275  0.53122151     0.18100
C1326       C  0.98031981  0.22397638  0.51691280    -0.19900
C1327       C  0.97412565  0.20963989  0.54818746    -0.21200
C1328       C  0.96164567  0.20478096  0.56322330    -0.19700
C1329       C  0.94185728  0.20820871  0.56161918     0.19500
C1330       C  0.93423297  0.21661407  0.54441110     0.01600
C1331       C  0.91408736  0.21953693  0.54355114    -0.14400
C1332       C  0.90202616  0.21355030  0.55871855    -0.12200
C1333       C  0.90959888  0.20479226  0.57537904     0.01200
C1334       C  0.92958712  0.20269879  0.57696066    -0.24300
H1335       H  0.94950904  0.24411994  0.48454458     0.09200
H1336       H  0.92605368  0.23321549  0.50825690     0.12700
H1337       H  0.99565882  0.22191171  0.51927373     0.11500
H1338       H  0.98942082  0.20695214  0.54995921     0.12600
H1339       H  0.96752558  0.19826930  0.57620803     0.11700
H1340       H  0.90716151  0.22594789  0.53116849     0.08800
H1341       H  0.88656327  0.21524818  0.55714233     0.12000
H1342       H  0.93551239  0.19564093  0.58964351     0.13900
C1343       C  0.91973560  0.09080621  0.69853698    -0.01600
C1344       C  0.93703195  0.09851301  0.70597376    -0.09600
C1345       C  0.95170803  0.08652006  0.71266586    -0.18500
C1346       C  0.94971626  0.06627401  0.71172881     0.03900
C1347       C  0.93177144  0.05859663  0.70495750     0.18100
C1348       C  0.91692114  0.07084747  0.69883760    -0.19900
C1349       C  0.92902714  0.03869578  0.70341599    -0.21200
C1350       C  0.94388906  0.02620621  0.70781433    -0.19700
C1351       C  0.96175361  0.03328065  0.71421757     0.19500
C1352       C  0.96496507  0.05334438  0.71668079     0.01600
C1353       C  0.98329264  0.05939733  0.72385023    -0.14400
C1354       C  0.99755371  0.04592580  0.72878882    -0.12200
C1355       C  0.99398744  0.02618510  0.72645824     0.01200
C1356       C  0.97626548  0.02016700  0.71860590    -0.24300
H1357       H  0.93951521  0.11395771  0.70600231     0.09200
H1358       H  0.96470966  0.09348881  0.71776903     0.12700
H1359       H  0.90368637  0.06476213  0.69297210     0.11500
H1360       H  0.91542429  0.03274753  0.69832633     0.12600
H1361       H  0.94137837  0.01084829  0.70618855     0.11700
H1362       H  0.98679421  0.07436400  0.72630213     0.08800
H1363       H  0.01095954  0.05088162  0.73522664     0.12000
H1364       H  0.97336415  0.00488506  0.71672430     0.13900
C1365       C  0.80870723  0.19354155  0.57081133    -0.01600
C1366       C  0.78992259  0.19842531  0.57643130    -0.09600
C1367       C  0.78179088  0.21595161  0.57056578    -0.18500
C1368       C  0.79218910  0.22912731  0.55862965     0.03900
C1369       C  0.81105650  0.22381942  0.55260507     0.18100
C1370       C  0.81910110  0.20635214  0.55881874    -0.19900
C1371       C  0.82184230  0.23594278  0.54035036    -0.21200
C1372       C  0.81406893  0.25298728  0.53336302    -0.19700
C1373       C  0.79543281  0.25854363  0.53872376     0.19500
C1374       C  0.78441356  0.24704148  0.55191351     0.01600
C1375       C  0.76583872  0.25367478  0.55714205    -0.14400
C1376       C  0.75783322  0.26982194  0.54806165    -0.12200
C1377       C  0.76819546  0.28010426  0.53390693     0.01200
C1378       C  0.78729236  0.27489831  0.52997271    -0.24300
H1379       H  0.78173233  0.18898481  0.58598797     0.09200
H1380       H  0.76733987  0.21878489  0.57558427     0.12700
H1381       H  0.83369101  0.20278069  0.55442244     0.11500
H1382       H  0.83626660  0.23200034  0.53577828     0.12600
H1383       H  0.82258059  0.26172373  0.52340272     0.11700
H1384       H  0.75680509  0.24614891  0.56748249     0.08800
H1385       H  0.74288303  0.27333006  0.55095095     0.12000
H1386       H  0.79517978  0.28250496  0.51863896     0.13900
C1387       C  0.79412472  0.08239735  0.58503944    -0.01600
C1388       C  0.79422158  0.08527764  0.56496826    -0.09600
C1389       C  0.78818968  0.07058180  0.55245016    -0.18500
C1390       C  0.78174182  0.05248360  0.55969697     0.03900
C1391       C  0.77983542  0.05031379  0.58006061     0.18100
C1392       C  0.78627238  0.06508678  0.59249815    -0.19900
C1393       C  0.77196230  0.03324519  0.58783198    -0.21200
C1394       C  0.76598518  0.01823638  0.57573528    -0.19700
C1395       C  0.76855064  0.01954514  0.55561550     0.19500
C1396       C  0.77703430  0.03653259  0.54745323     0.01600
C1397       C  0.78087623  0.03671755  0.52739286    -0.14400
C1398       C  0.77508455  0.02145361  0.51569035    -0.12200
C1399       C  0.76514701  0.00543855  0.52336376     0.01200
C1400       C  0.76244534  0.00420579  0.54350056    -0.24300
H1401       H  0.80003200  0.09852055  0.55885684     0.09200
H1402       H  0.78885627  0.07375737  0.53715194     0.12700
H1403       H  0.78578287  0.06284539  0.60806436     0.11500
H1404       H  0.77027350  0.03155251  0.60337479     0.12600
H1405       H  0.75963684  0.00539193  0.58218632     0.11700
H1406       H  0.78833632  0.04849111  0.52029522     0.08800
H1407       H  0.77766496  0.02258265  0.50021457     0.12000
H1408       H  0.75481199  0.99187716  0.54958844     0.13900
C1409       C  0.72916510  0.02949292  0.73139586    -0.01600
C1410       C  0.72739086  0.03424439  0.71179595    -0.09600
C1411       C  0.74223450  0.04433660  0.70225284    -0.18500
C1412       C  0.75933419  0.04986488  0.71216888     0.03900
C1413       C  0.76000850  0.04681176  0.73250852     0.18100
C1414       C  0.74507413  0.03656059  0.74185042    -0.19900
C1415       C  0.77601211  0.05314119  0.74322374    -0.21200
C1416       C  0.79177152  0.06182859  0.73402507    -0.19700
C1417       C  0.79218997  0.06379419  0.71382367     0.19500
C1418       C  0.77597122  0.05776479  0.70261656     0.01600
C1419       C  0.77743083  0.05907805  0.68226299    -0.14400
C1420       C  0.79405478  0.06641053  0.67343146    -0.12200
C1421       C  0.80985896  0.07291530  0.68444718     0.01200
C1422       C  0.80882698  0.07149586  0.70471484    -0.24300
H1423       H  0.71518745  0.02893034  0.70350976     0.09200
H1424       H  0.74014700  0.04712628  0.68702311     0.12700
H1425       H  0.74636827  0.03301910  0.75712283     0.11500
H1426       H  0.77646446  0.05109827  0.75880236     0.12600
H1427       H  0.80398219  0.06645666  0.74271470     0.11700
H1428       H  0.76608863  0.05424127  0.67271363     0.08800
H1429       H  0.79434773  0.06720514  0.65774176     0.12000
H1430       H  0.82089017  0.07649225  0.71341878     0.13900
C1431       C  0.76223973  0.72061962  0.96629302    -0.01600
C1432       C  0.75040773  0.73346932  0.95619330    -0.09600
C1433       C  0.75811809  0.75006565  0.94740085    -0.18500
C1434       C  0.77801585  0.75461281  0.94889454     0.03900
C1435       C  0.79009156  0.74090348  0.95822394     0.18100
C1436       C  0.78216275  0.72405995  0.96660995    -0.19900
C1437       C  0.80989154  0.74456193  0.96009889    -0.21200
C1438       C  0.81799270  0.76162378  0.95315748    -0.19700
C1439       C  0.80650598  0.77555172  0.94423444     0.19500
C1440       C  0.78633995  0.77238324  0.94196510     0.01600
C1441       C  0.77550452  0.78726070  0.93309881    -0.14400
C1442       C  0.78451341  0.80417386  0.92614548    -0.12200
C1443       C  0.80453955  0.80682205  0.92783764     0.01200
C1444       C  0.81526755  0.79254718  0.93732442    -0.24300
H1445       H  0.73487679  0.73134361  0.95628066     0.09200
H1446       H  0.74803863  0.75947356  0.94030083     0.12700
H1447       H  0.79128288  0.71452023  0.97496826     0.11500
H1448       H  0.81917080  0.73423505  0.96720361     0.12600
H1449       H  0.83339325  0.76399252  0.95489046     0.11700
H1450       H  0.76009968  0.78611702  0.93109585     0.08800
H1451       H  0.77587273  0.81487357  0.91881002     0.12000
H1452       H  0.83075798  0.79440581  0.93891574     0.13900
C1453       C  0.50811141  0.97477602  0.22217854    -0.01600
C1454       C  0.52262287  0.98367708  0.21102124    -0.09600
C1455       C  0.53888175  0.97352057  0.20510396    -0.18500
C1456       C  0.54124867  0.95402589  0.21042431     0.03900
C1457       C  0.52558879  0.94457838  0.22011661     0.18100
C1458       C  0.50917821  0.95500227  0.22588198    -0.19900
C1459       C  0.52686698  0.92503606  0.22490739    -0.21200
C1460       C  0.54347181  0.91474401  0.22061558    -0.19700
C1461       C  0.55941107  0.92383927  0.21184974     0.19500
C1462       C  0.55866461  0.94366912  0.20680902     0.01600
C1463       C  0.57552950  0.95230233  0.19877994    -0.14400
C1464       C  0.59202957  0.94141114  0.19495608    -0.12200
C1465       C  0.59230247  0.92161356  0.19899987     0.01200
C1466       C  0.57603617  0.91308884  0.20789338    -0.24300
H1467       H  0.52206886  0.99902938  0.20813499     0.09200
H1468       H  0.54963717  0.98149356  0.19698828     0.12700
H1469       H  0.49812393  0.94813943  0.23476338     0.11500
H1470       H  0.51499614  0.91768703  0.23217301     0.12600
H1471       H  0.54396217  0.89960190  0.22446855     0.11700
H1472       H  0.57638074  0.96741445  0.19518717     0.08800
H1473       H  0.60433330  0.94839256  0.18808272     0.12000
H1474       H  0.57605587  0.89781235  0.21126245     0.13900
C1475       C  0.70228765  0.92778309  0.17628127    -0.01600
C1476       C  0.71669974  0.93718116  0.16542163    -0.09600
C1477       C  0.73310220  0.94485460  0.17432009    -0.18500
C1478       C  0.73583701  0.94309941  0.19453111     0.03900
C1479       C  0.72073903  0.93435625  0.20566336     0.18100
C1480       C  0.70412433  0.92684208  0.19648595    -0.19900
C1481       C  0.72249245  0.93289616  0.22583079    -0.21200
C1482       C  0.73868107  0.94034667  0.23522988    -0.19700
C1483       C  0.75375056  0.94900713  0.22465521     0.19500
C1484       C  0.75285746  0.94997168  0.20410434     0.01600
C1485       C  0.76895339  0.95802435  0.19409763    -0.14400
C1486       C  0.78439352  0.96641178  0.20417612    -0.12200
C1487       C  0.78429035  0.96691510  0.22440970     0.01200
C1488       C  0.76932298  0.95753867  0.23455892    -0.24300
H1489       H  0.71551541  0.93811461  0.14977861     0.09200
H1490       H  0.74346260  0.95189895  0.16493991     0.12700
H1491       H  0.69311281  0.91939942  0.20494493     0.11500
H1492       H  0.71112863  0.92620455  0.23442997     0.12600
H1493       H  0.73936531  0.93943869  0.25090721     0.11700
H1494       H  0.76977361  0.95858945  0.17850340     0.08800
H1495       H  0.79567168  0.97386670  0.19611979     0.12000
H1496       H  0.76914578  0.95811504  0.25028201     0.13900
C1497       C  0.69955841  0.90595255  0.07762445    -0.01600
C1498       C  0.69068584  0.91016169  0.05990299    -0.09600
C1499       C  0.69432958  0.92771364  0.05040592    -0.18500
C1500       C  0.70725957  0.94157280  0.05826564     0.03900
C1501       C  0.71718619  0.93664381  0.07556547     0.18100
C1502       C  0.71303350  0.91917801  0.08518235    -0.19900
C1503       C  0.73108679  0.94925188  0.08326803    -0.21200
C1504       C  0.73574309  0.96646309  0.07386278    -0.19700
C1505       C  0.72606191  0.97189321  0.05694193     0.19500
C1506       C  0.71112651  0.95988605  0.04933918     0.01600
C1507       C  0.70099233  0.96661632  0.03292754    -0.14400
C1508       C  0.70690742  0.98340285  0.02323845    -0.12200
C1509       C  0.72285557  0.99414208  0.02968380     0.01200
C1510       C  0.73187862  0.98876380  0.04699915    -0.24300
H1511       H  0.68004430  0.90032177  0.05389422     0.09200
H1512       H  0.68680335  0.93005641  0.03695030     0.12700
H1513       H  0.71997511  0.91605326  0.09890471     0.11500
H1514       H  0.73873581  0.94556957  0.09644173     0.12600
H1515       H  0.74703879  0.97557389  0.07984621     0.11700
H1516       H  0.68886873  0.95885932  0.02687483     0.08800
H1517       H  0.69994524  0.98717068  0.00971036     0.12000
H1518       H  0.74447942  0.99680740  0.05183555     0.13900
C1519       C  0.57439920  0.81978527  0.20425323    -0.01600
C1520       C  0.56968923  0.80042952  0.20079418    -0.09600
C1521       C  0.56220777  0.78872910  0.21563674    -0.18500
C1522       C  0.55904228  0.79609630  0.23452918     0.03900
C1523       C  0.56350901  0.81582104  0.23786171     0.18100
C1524       C  0.57119998  0.82733653  0.22288271    -0.19900
C1525       C  0.56010598  0.82402824  0.25608435    -0.21200
C1526       C  0.55159692  0.81325316  0.27091752    -0.19700
C1527       C  0.54663269  0.79388070  0.26804144     0.19500
C1528       C  0.55095405  0.78484316  0.25002058     0.01600
C1529       C  0.54642003  0.76506711  0.24811549    -0.14400
C1530       C  0.53614985  0.75531479  0.26257498    -0.12200
C1531       C  0.53031796  0.76474124  0.27953418     0.01200
C1532       C  0.53644275  0.78375234  0.28266761    -0.24300
H1533       H  0.57217343  0.79415519  0.18664784     0.09200
H1534       H  0.55888510  0.77402697  0.21179900     0.12700
H1535       H  0.57475091  0.84230337  0.22581237     0.11500
H1536       H  0.56359624  0.83905229  0.25873808     0.12600
H1537       H  0.54856350  0.82022335  0.28462449     0.11700
H1538       H  0.55000636  0.75689453  0.23536043     0.08800
H1539       H  0.53172744  0.74051354  0.25999051     0.12000
H1540       H  0.53191182  0.79113135  0.29573089     0.13900
C1541       C  0.73002932  0.72047584  0.02810944    -0.01600
C1542       C  0.71212278  0.71562337  0.03623509    -0.09600
C1543       C  0.70204613  0.72910211  0.04732043    -0.18500
C1544       C  0.70968219  0.74789494  0.05044761     0.03900
C1545       C  0.72868921  0.75192872  0.04370065     0.18100
C1546       C  0.73863030  0.73824982  0.03271491    -0.19900
C1547       C  0.73729020  0.76995733  0.04703432    -0.21200
C1548       C  0.72703556  0.78451699  0.05611581    -0.19700
C1549       C  0.70785677  0.78147682  0.06187142     0.19500
C1550       C  0.69898354  0.76302844  0.05935247     0.01600
C1551       C  0.67955019  0.76076729  0.06516713    -0.14400
C1552       C  0.66940058  0.77609902  0.07309548    -0.12200
C1553       C  0.67814454  0.79428864  0.07563973     0.01200
C1554       C  0.69743509  0.79685452  0.06996242    -0.24300
H1555       H  0.70533324  0.70188062  0.03296479     0.09200
H1556       H  0.68806915  0.72460233  0.05266882     0.12700
H1557       H  0.75271777  0.74188602  0.02672785     0.11500
H1558       H  0.75190175  0.77298328  0.04213624     0.12600
H1559       H  0.73399048  0.79842349  0.05816927     0.11700
H1560       H  0.67167974  0.74738461  0.06360451     0.08800
H1561       H  0.65451858  0.77357916  0.07737952     0.12000
H1562       H  0.70443484  0.81073592  0.07207968     0.13900
C1563       C  0.29856351  0.57116307  0.17642224    -0.01600
C1564       C  0.28120952  0.56540656  0.16751283    -0.09600
C1565       C  0.26567156  0.55821204  0.17837806    -0.18500
C1566       C  0.26686799  0.55652362  0.19874066     0.03900
C1567       C  0.28458788  0.56208392  0.20772554     0.18100
C1568       C  0.30017529  0.56927844  0.19657324    -0.19900
C1569       C  0.28665075  0.56046283  0.22782734    -0.21200
C1570       C  0.27180222  0.55280102  0.23914317    -0.19700
C1571       C  0.25438474  0.54682060  0.23069736     0.19500
C1572       C  0.25135448  0.54908886  0.21047217     0.01600
C1573       C  0.23309590  0.54339002  0.20294251    -0.14400
C1574       C  0.21912334  0.53438936  0.21477854    -0.12200
C1575       C  0.22292376  0.53089624  0.23438178     0.01200
C1576       C  0.24027778  0.53783774  0.24232557    -0.24300
H1577       H  0.27948340  0.56673423  0.15195604     0.09200
H1578       H  0.25292036  0.55408340  0.17041033     0.12700
H1579       H  0.31337061  0.57394210  0.20366926     0.11500
H1580       H  0.29999909  0.56480443  0.23482095     0.12600
H1581       H  0.27407859  0.55126475  0.25461296     0.11700
H1582       H  0.22940414  0.54520916  0.18787863     0.08800
H1583       H  0.20582959  0.52914064  0.20833530     0.12000
H1584       H  0.24321513  0.53537239  0.25757514     0.13900
C1585       C  0.27817902  0.50387397  0.02173767    -0.01600
C1586       C  0.29064270  0.51764416  0.01346063    -0.09600
C1587       C  0.29618378  0.53410920  0.02365394    -0.18500
C1588       C  0.28930375  0.53742316  0.04262890     0.03900
C1589       C  0.27818171  0.52253169  0.05169211     0.18100
C1590       C  0.27257207  0.50598379  0.04114409    -0.19900
C1591       C  0.27204102  0.52469434  0.07091698    -0.21200
C1592       C  0.27657792  0.54135371  0.08125726    -0.19700
C1593       C  0.28678708  0.55657364  0.07243352     0.19500
C1594       C  0.29293745  0.55501109  0.05284954     0.01600
C1595       C  0.30211857  0.57126750  0.04425735    -0.14400
C1596       C  0.30612961  0.58788131  0.05504588    -0.12200
C1597       C  0.30123290  0.58886136  0.07473558     0.01200
C1598       C  0.29111321  0.57327360  0.08317393    -0.24300
H1599       H  0.29492743  0.51637513  0.99838817     0.09200
H1600       H  0.30545108  0.54421298  0.01610831     0.12700
H1601       H  0.26263027  0.49556827  0.04751532     0.11500
H1602       H  0.26367781  0.51341746  0.07801504     0.12600
H1603       H  0.27179522  0.54246618  0.09618853     0.11700
H1604       H  0.30643986  0.57156073  0.02923281     0.08800
H1605       H  0.31389729  0.59966724  0.04812889     0.12000
H1606       H  0.28702307  0.57390913  0.09834937     0.13900
C1607       C  0.26721572  0.77548481  0.02687224    -0.01600
C1608       C  0.28463337  0.78017178  0.03594400    -0.09600
C1609       C  0.29514573  0.76593715  0.04562023    -0.18500
C1610       C  0.28852422  0.74650304  0.04630642     0.03900
C1611       C  0.26998342  0.74230275  0.03864323     0.18100
C1612       C  0.25956911  0.75673497  0.02910787    -0.19900
C1613       C  0.26230771  0.72355374  0.03978916    -0.21200
C1614       C  0.27288305  0.70870057  0.04808809    -0.19700
C1615       C  0.29160094  0.71211186  0.05497583     0.19500
C1616       C  0.29972244  0.73105768  0.05397266     0.01600
C1617       C  0.31895817  0.73363843  0.06009216    -0.14400
C1618       C  0.32941291  0.71834391  0.06760230    -0.12200
C1619       C  0.32118055  0.69983605  0.06953759     0.01200
C1620       C  0.30228642  0.69673489  0.06286342    -0.24300
H1621       H  0.29076282  0.79452500  0.03447308     0.09200
H1622       H  0.30862611  0.77049675  0.05199062     0.12700
H1623       H  0.24588307  0.75306448  0.02235558     0.11500
H1624       H  0.24807540  0.72031748  0.03406773     0.12600
H1625       H  0.26652923  0.69437181  0.04875703     0.11700
H1626       H  0.32644558  0.74729583  0.05911662     0.08800
H1627       H  0.34407389  0.72124203  0.07230338     0.12000
H1628       H  0.29575202  0.68252382  0.06418956     0.13900
C1629       C  0.42704829  0.67905100  0.19953354    -0.01600
C1630       C  0.43124078  0.69866789  0.19689719    -0.09600
C1631       C  0.43910225  0.70965243  0.21203902    -0.18500
C1632       C  0.44309057  0.70126153  0.23036497     0.03900
C1633       C  0.43967808  0.68116713  0.23258078     0.18100
C1634       C  0.43171904  0.67038396  0.21733180    -0.19900
C1635       C  0.44406249  0.67190696  0.25007119    -0.21200
C1636       C  0.45202054  0.68214182  0.26545088    -0.19700
C1637       C  0.45550034  0.70196932  0.26386488     0.19500
C1638       C  0.45067473  0.71191429  0.24644529     0.01600
C1639       C  0.45395465  0.73202652  0.24582360    -0.14400
C1640       C  0.46326945  0.74145766  0.26106322    -0.12200
C1641       C  0.46927657  0.73133139  0.27756189     0.01200
C1642       C  0.46459819  0.71175576  0.27927636    -0.24300
H1643       H  0.42782421  0.70571213  0.18331367     0.09200
H1644       H  0.44182495  0.72467556  0.20898337     0.12700
H1645       H  0.42882358  0.65513583  0.21949464     0.11500
H1646       H  0.44150895  0.65655960  0.25180404     0.12600
H1647       H  0.45560495  0.67445636  0.27864205     0.11700
H1648       H  0.45004514  0.74075607  0.23352430     0.08800
H1649       H  0.46675816  0.75664782  0.25950530     0.12000
H1650       H  0.46942275  0.70382311  0.29191016     0.13900
C1651       C  0.53116723  0.77715905  0.00502516    -0.01600
C1652       C  0.52607072  0.79394665  0.01490806    -0.09600
C1653       C  0.53588850  0.79955323  0.03168896    -0.18500
C1654       C  0.55105864  0.78828504  0.03921510     0.03900
C1655       C  0.55754264  0.77248290  0.02791559     0.18100
C1656       C  0.54744718  0.76695519  0.01108524    -0.19900
C1657       C  0.57338422  0.76168886  0.03407450    -0.21200
C1658       C  0.58274065  0.76606969  0.05138732    -0.19700
C1659       C  0.57596023  0.78079726  0.06339881     0.19500
C1660       C  0.55974371  0.79184976  0.05768583     0.01600
C1661       C  0.55254732  0.80553404  0.07099549    -0.14400
C1662       C  0.56169387  0.80878319  0.08877000    -0.12200
C1663       C  0.57846914  0.79881329  0.09373213     0.01200
C1664       C  0.58537546  0.78464300  0.08105834    -0.24300
H1665       H  0.51335199  0.80184934  0.01058714     0.09200
H1666       H  0.53087264  0.81238210  0.03882737     0.12700
H1667       H  0.55123284  0.75375314  0.00365273     0.11500
H1668       H  0.57853477  0.74972813  0.02547288     0.12600
H1669       H  0.59506559  0.75754437  0.05565684     0.11700
H1670       H  0.53984361  0.81391591  0.06808175     0.08800
H1671       H  0.55624596  0.81998239  0.09817999     0.12000
H1672       H  0.59838279  0.77688362  0.08478345     0.13900
C1673       C  0.47526335  0.73612332  0.00939754    -0.01600
C1674       C  0.48389922  0.72398339  0.02304684    -0.09600
C1675       C  0.47352069  0.71680577  0.03886799    -0.18500
C1676       C  0.45400391  0.72178836  0.04179800     0.03900
C1677       C  0.44491584  0.73323440  0.02733111     0.18100
C1678       C  0.45558351  0.74027648  0.01126336    -0.19900
C1679       C  0.42541370  0.73803447  0.02934240    -0.21200
C1680       C  0.41472679  0.73162543  0.04530103    -0.19700
C1681       C  0.42336178  0.72060691  0.05991005     0.19500
C1682       C  0.44323456  0.71586088  0.05856946     0.01600
C1683       C  0.45149613  0.70553675  0.07417731    -0.14400
C1684       C  0.44027757  0.69931480  0.08990726    -0.12200
C1685       C  0.42044915  0.70302551  0.09065641     0.01200
C1686       C  0.41217155  0.71404607  0.07573814    -0.24300
H1687       H  0.49913397  0.72068202  0.02189685     0.09200
H1688       H  0.48131677  0.70767654  0.04871593     0.12700
H1689       H  0.44890934  0.74992572  0.00092163     0.11500
H1690       H  0.41834481  0.74675171  0.01845274     0.12600
H1691       H  0.39960319  0.73541218  0.04627617     0.11700
H1692       H  0.46658314  0.70192382  0.07464051     0.08800
H1693       H  0.44706241  0.69084368  0.10116371     0.12000
H1694       H  0.39685776  0.71716824  0.07620854     0.13900
C1695       C  0.49473786  0.52943485  0.22611122    -0.01600
C1696       C  0.49417791  0.54931975  0.22921839    -0.09600
C1697       C  0.47811701  0.56004474  0.22325255    -0.18500
C1698       C  0.46196935  0.55103101  0.21422561     0.03900
C1699       C  0.46333087  0.53109207  0.20993901     0.18100
C1700       C  0.47960977  0.52064366  0.21573151    -0.19900
C1701       C  0.44805488  0.52143720  0.20071810    -0.21200
C1702       C  0.43124853  0.53111360  0.19580847    -0.19700
C1703       C  0.42914261  0.55065577  0.20021088     0.19500
C1704       C  0.44442590  0.56088101  0.20959826     0.01600
C1705       C  0.44133733  0.58043398  0.21416553    -0.14400
C1706       C  0.42426416  0.58962475  0.20886657    -0.12200
C1707       C  0.40952471  0.57976788  0.19887570     0.01200
C1708       C  0.41193834  0.56010249  0.19499091    -0.24300
H1709       H  0.50548419  0.55633829  0.23751288     0.09200
H1710       H  0.47845401  0.57521886  0.22653215     0.12700
H1711       H  0.47987641  0.50517517  0.21345354     0.11500
H1712       H  0.44904641  0.50621128  0.19741710     0.12600
H1713       H  0.41973538  0.52319477  0.18865933     0.11700
H1714       H  0.45193685  0.58909067  0.22165688     0.08800
H1715       H  0.42286182  0.60480794  0.21216280     0.12000
H1716       H  0.40077865  0.55231326  0.18716474     0.13900
C1717       C  0.30981553  0.41414821  0.42744085    -0.01600
C1718       C  0.31558151  0.41515473  0.44686744    -0.09600
C1719       C  0.31136523  0.43135295  0.45813976    -0.18500
C1720       C  0.30109147  0.44713360  0.45030935     0.03900
C1721       C  0.29466411  0.44569764  0.43082053     0.18100
C1722       C  0.29911583  0.42942252  0.41965289    -0.19900
C1723       C  0.28390274  0.46056185  0.42250146    -0.21200
C1724       C  0.27895117  0.47670475  0.43327283    -0.19700
C1725       C  0.28491261  0.47856942  0.45254571     0.19500
C1726       C  0.29653328  0.46405377  0.46118750     0.01600
C1727       C  0.30263502  0.46691530  0.48050610    -0.14400
C1728       C  0.29586638  0.48243294  0.49131488    -0.12200
C1729       C  0.28317994  0.49581293  0.48320275     0.01200
C1730       C  0.27844977  0.49434251  0.46356300    -0.24300
H1731       H  0.32400920  0.40368475  0.45320648     0.09200
H1732       H  0.31639515  0.43110575  0.47291060     0.12700
H1733       H  0.29450527  0.42883005  0.40464586     0.11500
H1734       H  0.27900166  0.45955349  0.40761996     0.12600
H1735       H  0.27018311  0.48770301  0.42654348     0.11700
H1736       H  0.31201714  0.45703257  0.48790657     0.08800
H1737       H  0.29955905  0.48329952  0.50655662     0.12000
H1738       H  0.26837009  0.50449001  0.45733808     0.13900
C1739       C  0.41021091  0.42454804  0.29679320    -0.01600
C1740       C  0.42483027  0.41539342  0.28619006    -0.09600
C1741       C  0.44187731  0.42515712  0.28118982    -0.18500
C1742       C  0.44497226  0.44451215  0.28677395     0.03900
C1743       C  0.42967391  0.45402789  0.29661457     0.18100
C1744       C  0.41253382  0.44406482  0.30142426    -0.19900
C1745       C  0.43170730  0.47335161  0.30199873    -0.21200
C1746       C  0.44851091  0.48355694  0.29762926    -0.19700
C1747       C  0.46381067  0.47462375  0.28800013     0.19500
C1748       C  0.46252523  0.45487217  0.28275600     0.01600
C1749       C  0.47874787  0.44657825  0.27343051    -0.14400
C1750       C  0.49473160  0.45794197  0.26792799    -0.12200
C1751       C  0.49507150  0.47768741  0.27187138     0.01200
C1752       C  0.48001128  0.48567988  0.28269177    -0.24300
H1753       H  0.42341312  0.40031962  0.28232540     0.09200
H1754       H  0.45247088  0.41708686  0.27321051     0.12700
H1755       H  0.40141445  0.45128474  0.30970482     0.11500
H1756       H  0.42014463  0.48068599  0.30951097     0.12600
H1757       H  0.44947674  0.49862595  0.30165941     0.11700
H1758       H  0.47917819  0.43155427  0.26953772     0.08800
H1759       H  0.50611969  0.45159123  0.25931893     0.12000
H1760       H  0.48022140  0.50104847  0.28560310     0.13900
C1761       C  0.27388637  0.22960828  0.47762296    -0.01600
C1762       C  0.29043730  0.22416759  0.46740831    -0.09600
C1763       C  0.30141596  0.23802180  0.45716317    -0.18500
C1764       C  0.29615695  0.25780003  0.45702810     0.03900
C1765       C  0.27883423  0.26289812  0.46664084     0.18100
C1766       C  0.26790329  0.24889708  0.47646633    -0.19900
C1767       C  0.27268314  0.28207009  0.46693153    -0.21200
C1768       C  0.28351064  0.29651087  0.45797382    -0.19700
C1769       C  0.30082029  0.29217764  0.44855708     0.19500
C1770       C  0.30742682  0.27276186  0.44796937     0.01600
C1771       C  0.32512782  0.26925439  0.43855231    -0.14400
C1772       C  0.33557643  0.28422775  0.42982618    -0.12200
C1773       C  0.32885508  0.30331545  0.43001501     0.01200
C1774       C  0.31149232  0.30717737  0.43962102    -0.24300
H1775       H  0.29534141  0.20940208  0.46799086     0.09200
H1776       H  0.31414472  0.23289762  0.44986382     0.12700
H1777       H  0.25486267  0.25329618  0.48392867     0.11500
H1778       H  0.25943820  0.28596744  0.47430241     0.12600
H1779       H  0.27835163  0.31120070  0.45851792     0.11700
H1780       H  0.33127990  0.25508045  0.43763622     0.08800
H1781       H  0.34897159  0.28065338  0.42258172     0.12000
H1782       H  0.30607420  0.32178597  0.43984243     0.13900
C1783       C  0.30289972  0.43530154  0.32683056    -0.01600
C1784       C  0.30233346  0.43523161  0.30655945    -0.09600
C1785       C  0.28662523  0.44302860  0.29662361    -0.18500
C1786       C  0.27099664  0.45147012  0.30671189     0.03900
C1787       C  0.27230372  0.45278169  0.32721773     0.18100
C1788       C  0.28794983  0.44441121  0.33706567    -0.19900
C1789       C  0.25792110  0.46231467  0.33773679    -0.21200
C1790       C  0.24232585  0.47072445  0.32828252    -0.19700
C1791       C  0.24029446  0.46917644  0.30813857     0.19500
C1792       C  0.25433790  0.45899948  0.29716239     0.01600
C1793       C  0.25112972  0.45685489  0.27706048    -0.14400
C1794       C  0.23564373  0.46587383  0.26799684    -0.12200
C1795       C  0.22264761  0.47707077  0.27857555     0.01200
C1796       C  0.22467796  0.47824399  0.29876085    -0.24300
H1797       H  0.31367935  0.42832917  0.29834245     0.09200
H1798       H  0.28715962  0.44228733  0.28102605     0.12700
H1799       H  0.28838644  0.44477272  0.35278301     0.11500
H1800       H  0.25889070  0.46352594  0.35337262     0.12600
H1801       H  0.23171009  0.47838450  0.33680615     0.11700
H1802       H  0.26054234  0.44858366  0.26788330     0.08800
H1803       H  0.23437802  0.46494078  0.25236346     0.12000
H1804       H  0.21483489  0.48716009  0.30697705     0.13900
C1805       C  0.42682630  0.32474070  0.29405420    -0.01600
C1806       C  0.43280734  0.33379364  0.27679758    -0.09600
C1807       C  0.44049218  0.32319521  0.26143535    -0.18500
C1808       C  0.44225900  0.30296052  0.26268427     0.03900
C1809       C  0.43622733  0.29382911  0.28025996     0.18100
C1810       C  0.42877324  0.30473505  0.29573405    -0.19900
C1811       C  0.43759983  0.27382825  0.28228726    -0.21200
C1812       C  0.44540174  0.26272864  0.26752867    -0.19700
C1813       C  0.45197754  0.27132294  0.25032119     0.19500
C1814       C  0.45013053  0.29148618  0.24735885     0.01600
C1815       C  0.45678259  0.29922422  0.22942486    -0.14400
C1816       C  0.46630914  0.28764360  0.21580984    -0.12200
C1817       C  0.46925646  0.26808930  0.21960710     0.01200
C1818       C  0.46132187  0.25992759  0.23648134    -0.24300
H1819       H  0.43141914  0.34924749  0.27509871     0.09200
H1820       H  0.44483320  0.33124611  0.24874373     0.12700
H1821       H  0.42392325  0.29755678  0.30888644     0.11500
H1822       H  0.43287503  0.26673457  0.29551956     0.12600
H1823       H  0.44667183  0.24732194  0.26976239     0.11700
H1824       H  0.45551264  0.31428609  0.22584283     0.08800
H1825       H  0.47252520  0.29425602  0.20295377     0.12000
H1826       H  0.46362177  0.24475501  0.23945697     0.13900
C1827       C  0.47573511  0.27344932  0.48989077    -0.01600
C1828       C  0.48393484  0.28806092  0.47842504    -0.09600
C1829       C  0.47418764  0.29523865  0.46226562    -0.18500
C1830       C  0.45597640  0.28762362  0.45683069     0.03900
C1831       C  0.44703769  0.27394634  0.46949952     0.18100
C1832       C  0.45697160  0.26699173  0.48583902    -0.19900
C1833       C  0.42865790  0.26656215  0.46523483    -0.21200
C1834       C  0.41904071  0.27225840  0.44852463    -0.19700
C1835       C  0.42777928  0.28506459  0.43536819     0.19500
C1836       C  0.44649264  0.29274477  0.43914565     0.01600
C1837       C  0.45501791  0.30483074  0.42482932    -0.14400
C1838       C  0.44496024  0.30981430  0.40796902    -0.12200
C1839       C  0.42608215  0.30308366  0.40490073     0.01200
C1840       C  0.41776562  0.29040771  0.41852835    -0.24300
H1841       H  0.49857197  0.29298598  0.48119291     0.09200
H1842       H  0.48156231  0.30623269  0.45392856     0.12700
H1843       H  0.45076221  0.25537477  0.49445583     0.11500
H1844       H  0.42170881  0.25621304  0.47483986     0.12600
H1845       H  0.40477368  0.26634467  0.44570704     0.11700
H1846       H  0.46939220  0.31074364  0.42629989     0.08800
H1847       H  0.45162329  0.31978205  0.39778693     0.12000
H1848       H  0.40316401  0.28507421  0.41626413     0.13900
C1849       C  0.59447188  0.07653509  0.29525619    -0.01600
C1850       C  0.57936548  0.08605990  0.28576269    -0.09600
C1851       C  0.56224413  0.07642183  0.28101719    -0.18500
C1852       C  0.55953598  0.05675850  0.28565875     0.03900
C1853       C  0.57526873  0.04685045  0.29431676     0.18100
C1854       C  0.59248591  0.05675821  0.29902866    -0.19900
C1855       C  0.57361528  0.02716003  0.29848214    -0.21200
C1856       C  0.55682510  0.01701004  0.29393660    -0.19700
C1857       C  0.54111051  0.02637309  0.28547528     0.19500
C1858       C  0.54196549  0.04647808  0.28167201     0.01600
C1859       C  0.52529695  0.05525136  0.27373387    -0.14400
C1860       C  0.50927025  0.04414922  0.26800816    -0.12200
C1861       C  0.50935408  0.02414290  0.27027720     0.01200
C1862       C  0.52489215  0.01551688  0.27987597    -0.24300
H1863       H  0.58051244  0.10131076  0.28248904     0.09200
H1864       H  0.55134469  0.08480065  0.27383902     0.12700
H1865       H  0.60400068  0.04922778  0.30640187     0.11500
H1866       H  0.58549266  0.01949051  0.30507132     0.12600
H1867       H  0.55618634  0.00166773  0.29691547     0.11700
H1868       H  0.52449019  0.07054507  0.27114612     0.08800
H1869       H  0.49748705  0.05103471  0.26045438     0.12000
H1870       H  0.52497866  0.99996394  0.28160691     0.13900
C1871       C  0.70606442  0.06892747  0.31456442    -0.01600
C1872       C  0.72399745  0.06575492  0.32348163    -0.09600
C1873       C  0.73928798  0.05754592  0.31340639    -0.18500
C1874       C  0.73725887  0.05206800  0.29386099     0.03900
C1875       C  0.71872333  0.05411739  0.28514490     0.18100
C1876       C  0.70335308  0.06256313  0.29548835    -0.19900
C1877       C  0.71574693  0.04790518  0.26609518    -0.21200
C1878       C  0.73068213  0.03957050  0.25561108    -0.19700
C1879       C  0.74909559  0.03763393  0.26375094     0.19500
C1880       C  0.75284786  0.04426757  0.28280704     0.01600
C1881       C  0.77201036  0.04265399  0.28993909    -0.14400
C1882       C  0.78635121  0.03325106  0.27921750    -0.12200
C1883       C  0.78202903  0.02537106  0.26110308     0.01200
C1884       C  0.76361822  0.02843233  0.25315122    -0.24300
H1885       H  0.72645077  0.07007357  0.33836851     0.09200
H1886       H  0.75253124  0.05568055  0.32134276     0.12700
H1887       H  0.68954414  0.06476472  0.28847838     0.11500
H1888       H  0.70171514  0.04930552  0.25932531     0.12600
H1889       H  0.72779189  0.03454723  0.24102279     0.11700
H1890       H  0.77624439  0.04813293  0.30392100     0.08800
H1891       H  0.80045297  0.03113927  0.28560402     0.12000
H1892       H  0.76024537  0.02266777  0.23893188     0.13900
C1893       C  0.68652990  0.19868398  0.42158650    -0.01600
C1894       C  0.70318290  0.19425672  0.43208219    -0.09600
C1895       C  0.71372055  0.20878886  0.44152932    -0.18500
C1896       C  0.70789803  0.22834270  0.44075149     0.03900
C1897       C  0.69101049  0.23273327  0.43010115     0.18100
C1898       C  0.68069976  0.21805944  0.42058361    -0.19900
C1899       C  0.68425029  0.25170256  0.42929781    -0.21200
C1900       C  0.69344655  0.26635215  0.43960936    -0.19700
C1901       C  0.70993832  0.26251227  0.45058387     0.19500
C1902       C  0.71779526  0.24358474  0.45067203     0.01600
C1903       C  0.73507235  0.24066788  0.46095413    -0.14400
C1904       C  0.74320479  0.25534868  0.47205410    -0.12200
C1905       C  0.73452397  0.27352689  0.47343086     0.01200
C1906       C  0.71828973  0.27728661  0.46197767    -0.24300
H1907       H  0.70803527  0.17949593  0.43311276     0.09200
H1908       H  0.72614417  0.20418847  0.44963076     0.12700
H1909       H  0.66790696  0.22183878  0.41243109     0.11500
H1910       H  0.67141535  0.25514052  0.42106163     0.12600
H1911       H  0.68747802  0.28073023  0.43918232     0.11700
H1912       H  0.74253108  0.22711035  0.46094596     0.08800
H1913       H  0.75614562  0.25214420  0.48020711     0.12000
H1914       H  0.71158827  0.29132714  0.46268017     0.13900
C1915       C  0.57370038  0.17461601  0.29837540    -0.01600
C1916       C  0.56618693  0.19264205  0.30320379    -0.09600
C1917       C  0.55689913  0.20390266  0.28920944    -0.18500
C1918       C  0.55485051  0.19745290  0.26980469     0.03900
C1919       C  0.56178276  0.17883534  0.26521294     0.18100
C1920       C  0.57107577  0.16772919  0.27937018    -0.19900
C1921       C  0.55955051  0.17141231  0.24646233    -0.21200
C1922       C  0.55036533  0.18203686  0.23211901    -0.19700
C1923       C  0.54348112  0.20050872  0.23604486     0.19500
C1924       C  0.54597619  0.20862991  0.25485842     0.01600
C1925       C  0.53942482  0.22757321  0.25788736    -0.14400
C1926       C  0.52962708  0.23744425  0.24336605    -0.12200
C1927       C  0.52608047  0.22896039  0.22524733     0.01200
C1928       C  0.53364659  0.21071845  0.22142805    -0.24300
H1929       H  0.56790949  0.19830140  0.31772656     0.09200
H1930       H  0.55151891  0.21760384  0.29403050     0.12700
H1931       H  0.57658678  0.15370189  0.27539510     0.11500
H1932       H  0.56480546  0.15718468  0.24289917     0.12600
H1933       H  0.54861094  0.17573979  0.21785594     0.11700
H1934       H  0.54140017  0.23507636  0.27140820     0.08800
H1935       H  0.52423024  0.25169626  0.24658309     0.12000
H1936       H  0.53099405  0.20404596  0.20747189     0.13900
C1937       C  0.58487936  0.19360542  0.40886316    -0.01600
C1938       C  0.59345726  0.19779724  0.42685383    -0.09600
C1939       C  0.58230752  0.20333998  0.44283003    -0.18500
C1940       C  0.56203503  0.20498601  0.44138105     0.03900
C1941       C  0.55344285  0.20094597  0.42305543     0.18100
C1942       C  0.56481280  0.19527818  0.40715412    -0.19900
C1943       C  0.53348981  0.20259155  0.42063022    -0.21200
C1944       C  0.52186401  0.20853394  0.43585738    -0.19700
C1945       C  0.52985484  0.21284177  0.45397032     0.19500
C1946       C  0.54997727  0.21083268  0.45723542     0.01600
C1947       C  0.55702815  0.21515227  0.47608527    -0.14400
C1948       C  0.54475401  0.22240908  0.49057266    -0.12200
C1949       C  0.52517288  0.22542419  0.48670552     0.01200
C1950       C  0.51779863  0.21987513  0.46860976    -0.24300
H1951       H  0.60891437  0.19646510  0.42875827     0.09200
H1952       H  0.58995694  0.20625536  0.45611538     0.12700
H1953       H  0.55794321  0.19199275  0.39342581     0.11500
H1954       H  0.52683435  0.19949683  0.40675780     0.12600
H1955       H  0.50649405  0.21001232  0.43336229     0.11700
H1956       H  0.57203095  0.21358922  0.47986715     0.08800
H1957       H  0.55079456  0.22664303  0.50441223     0.12000
H1958       H  0.50258607  0.22193335  0.46555618     0.13900
C1959       C  0.70975350  0.08932617  0.41199558    -0.01600
C1960       C  0.72080633  0.07494084  0.40309323    -0.09600
C1961       C  0.72493801  0.05770853  0.41281693    -0.18500
C1962       C  0.71762397  0.05408673  0.43166725     0.03900
C1963       C  0.70676692  0.06894456  0.44068317     0.18100
C1964       C  0.70339712  0.08642752  0.43104571    -0.19900
C1965       C  0.69862467  0.06606179  0.45903303    -0.21200
C1966       C  0.70099876  0.04874326  0.46874303    -0.19700
C1967       C  0.71193990  0.03400464  0.46054784     0.19500
C1968       C  0.72048988  0.03632982  0.44191569     0.01600
C1969       C  0.73191681  0.02099457  0.43477783    -0.14400
C1970       C  0.73585114  0.00481802  0.44638345    -0.12200
C1971       C  0.72803262  0.00325983  0.46506192     0.01200
C1972       C  0.71533703  0.01742048  0.47155254    -0.24300
H1973       H  0.72569960  0.07673362  0.38825221     0.09200
H1974       H  0.73324614  0.04721718  0.40496568     0.12700
H1975       H  0.69449281  0.09724582  0.43790791     0.11500
H1976       H  0.69021044  0.07725331  0.46589063     0.12600
H1977       H  0.69456052  0.04702574  0.48299729     0.11700
H1978       H  0.73888600  0.02162489  0.42078954     0.08800
H1979       H  0.74615493  0.99428773  0.44133769     0.12000
H1980       H  0.70961489  0.01640854  0.48619794     0.13900
C1981       C  0.20542612  0.41721143  0.59799114    -0.01600
C1982       C  0.20663941  0.41371499  0.57804639    -0.09600
C1983       C  0.21271649  0.42827523  0.56524265    -0.18500
C1984       C  0.21784319  0.44691084  0.57203842     0.03900
C1985       C  0.21773751  0.45000890  0.59236419     0.18100
C1986       C  0.21145059  0.43531844  0.60503149    -0.19900
C1987       C  0.22368948  0.46782992  0.59993412    -0.21200
C1988       C  0.22996828  0.48264969  0.58772048    -0.19700
C1989       C  0.22990780  0.48024985  0.56757892     0.19500
C1990       C  0.22333481  0.46248106  0.55946275     0.01600
C1991       C  0.22252369  0.46107228  0.53908691    -0.14400
C1992       C  0.22945004  0.47597011  0.52733973    -0.12200
C1993       C  0.23729633  0.49287085  0.53533516     0.01200
C1994       C  0.23687304  0.49527147  0.55548267    -0.24300
H1995       H  0.20213111  0.39991420  0.57220298     0.09200
H1996       H  0.21319078  0.42451444  0.55009845     0.12700
H1997       H  0.21082928  0.43818450  0.62047214     0.11500
H1998       H  0.22370158  0.47025536  0.61545506     0.12600
H1999       H  0.23484134  0.49610772  0.59407818     0.11700
H2000       H  0.21686799  0.44853195  0.53177587     0.08800
H2001       H  0.22941340  0.47392768  0.51175916     0.12000
H2002       H  0.24296252  0.50828173  0.56176342     0.13900
C2003       C  0.02227733  0.26406119  0.77527175    -0.01600
C2004       C  0.03034780  0.25229164  0.76096267    -0.09600
C2005       C  0.04073935  0.26020858  0.74542634    -0.18500
C2006       C  0.04305534  0.28037779  0.74347852     0.03900
C2007       C  0.03586768  0.29217818  0.75872852     0.18100
C2008       C  0.02567873  0.28394167  0.77446744    -0.19900
C2009       C  0.03801193  0.31221613  0.75768979    -0.21200
C2010       C  0.04681752  0.32085549  0.74171200    -0.19700
C2011       C  0.05354443  0.30970421  0.72624818     0.19500
C2012       C  0.05177646  0.28930714  0.72680398     0.01600
C2013       C  0.05850630  0.27887384  0.71049173    -0.14400
C2014       C  0.06713071  0.28832017  0.69461813    -0.12200
C2015       C  0.06929656  0.30841852  0.69443659     0.01200
C2016       C  0.06214884  0.31894959  0.71025780    -0.24300
H2017       H  0.02749666  0.23690309  0.76114265     0.09200
H2018       H  0.04611761  0.25022584  0.73480547     0.12700
H2019       H  0.01899637  0.29314118  0.78521116     0.11500
H2020       H  0.03262518  0.32130608  0.76922190     0.12600
H2021       H  0.04818071  0.33643237  0.74135294     0.11700
H2022       H  0.05740999  0.26339986  0.70961095     0.08800
H2023       H  0.07252221  0.27980454  0.68266326     0.12000
H2024       H  0.06357816  0.33452830  0.71036173     0.13900
C2025       C  0.09018506  0.29748126  0.58408475    -0.01600
C2026       C  0.09861807  0.28951972  0.56740623    -0.09600
C2027       C  0.08751298  0.28472311  0.55121869    -0.18500
C2028       C  0.06740636  0.28784220  0.55104019     0.03900
C2029       C  0.05870755  0.29486149  0.56838866     0.18100
C2030       C  0.07009011  0.29953151  0.58469270    -0.19900
C2031       C  0.03874127  0.29763431  0.56919145    -0.21200
C2032       C  0.02720957  0.29352028  0.55322912    -0.19700
C2033       C  0.03536571  0.28679126  0.53593640     0.19500
C2034       C  0.05559744  0.28413067  0.53437807     0.01600
C2035       C  0.06298031  0.27776259  0.51624954    -0.14400
C2036       C  0.05057840  0.27280394  0.50089107    -0.12200
C2037       C  0.03057372  0.27425685  0.50311553     0.01200
C2038       C  0.02322481  0.28202875  0.52040439    -0.24300
H2039       H  0.11411899  0.28762323  0.56658432     0.09200
H2040       H  0.09513112  0.27888170  0.53895259     0.12700
H2041       H  0.06342274  0.30578523  0.59742754     0.11500
H2042       H  0.03196994  0.30294798  0.58229598     0.12600
H2043       H  0.01174850  0.29556398  0.55444359     0.11700
H2044       H  0.07821999  0.27596684  0.51369240     0.08800
H2045       H  0.05656576  0.26672749  0.48775816     0.12000
H2046       H  0.00770995  0.28333046  0.52218899     0.13900
C2047       C  0.19487504  0.42093743  0.69984694    -0.01600
C2048       C  0.19730356  0.41996272  0.72001374    -0.09600
C2049       C  0.21418504  0.42723416  0.72881378    -0.18500
C2050       C  0.22924264  0.43586300  0.71766840     0.03900
C2051       C  0.22670689  0.43667031  0.69725147     0.18100
C2052       C  0.20981348  0.42928659  0.68867006    -0.19900
C2053       C  0.24095049  0.44506237  0.68539950    -0.21200
C2054       C  0.25741578  0.45339500  0.69340286    -0.19700
C2055       C  0.26016388  0.45348703  0.71348267     0.19500
C2056       C  0.24639163  0.44430452  0.72593156     0.01600
C2057       C  0.25002714  0.44483227  0.74610578    -0.14400
C2058       C  0.26554901  0.45558317  0.75358377    -0.12200
C2059       C  0.27830176  0.46561374  0.74127381     0.01200
C2060       C  0.27598576  0.46381317  0.72121727    -0.24300
H2061       H  0.18625646  0.41329697  0.72901007     0.09200
H2062       H  0.21502108  0.42597146  0.74437496     0.12700
H2063       H  0.20834394  0.43008908  0.67303520     0.11500
H2064       H  0.23914326  0.44557142  0.66979541     0.12600
H2065       H  0.26785461  0.46026372  0.68382054     0.11700
H2066       H  0.24055359  0.43793524  0.75649990     0.08800
H2067       H  0.26683406  0.45715758  0.76915738     0.12000
H2068       H  0.28546064  0.47200181  0.71164437     0.13900
C2069       C  0.19127735  0.30817591  0.57878638    -0.01600
C2070       C  0.21148794  0.30736893  0.57807668    -0.09600
C2071       C  0.22083240  0.29130243  0.57023786    -0.18500
C2072       C  0.21020035  0.27537923  0.56281022     0.03900
C2073       C  0.18973649  0.27651342  0.56308529     0.18100
C2074       C  0.18056973  0.29270549  0.57098674    -0.19900
C2075       C  0.17845875  0.26142415  0.55556593    -0.21200
C2076       C  0.18705216  0.24529244  0.54742804    -0.19700
C2077       C  0.20716585  0.24368564  0.54677427     0.19500
C2078       C  0.21904020  0.25853838  0.55482787     0.01600
C2079       C  0.23924139  0.25602220  0.55415939    -0.14400
C2080       C  0.24725531  0.24031429  0.54455739    -0.12200
C2081       C  0.23555689  0.22643705  0.53544146     0.01200
C2082       C  0.21548791  0.22777803  0.53725059    -0.24300
H2083       H  0.22015546  0.31901225  0.58400166     0.09200
H2084       H  0.23639556  0.29175484  0.57026644     0.12700
H2085       H  0.16491564  0.29307260  0.57131384     0.11500
H2086       H  0.16282877  0.26220105  0.55577652     0.12600
H2087       H  0.17788029  0.23407703  0.54140380     0.11700
H2088       H  0.24925999  0.26627734  0.56031793     0.08800
H2089       H  0.26283421  0.23967765  0.54309818     0.12000
H2090       H  0.20636134  0.21735792  0.52986559     0.13900
C2091       C  0.08221003  0.40766437  0.71225677    -0.01600
C2092       C  0.08420578  0.42765633  0.71028930    -0.09600
C2093       C  0.06943227  0.43997888  0.71631144    -0.18500
C2094       C  0.05212607  0.43266100  0.72474476     0.03900
C2095       C  0.05065031  0.41244797  0.72773902     0.18100
C2096       C  0.06547068  0.40021234  0.72130166    -0.19900
C2097       C  0.03425756  0.40454074  0.73686558    -0.21200
C2098       C  0.01929530  0.41629842  0.74320430    -0.19700
C2099       C  0.02005434  0.43624994  0.74014243     0.19500
C2100       C  0.03634560  0.44463927  0.73048954     0.01600
C2101       C  0.03613875  0.46468259  0.72701422    -0.14400
C2102       C  0.02115673  0.47604408  0.73397495    -0.12200
C2103       C  0.00568306  0.46799607  0.74448584     0.01200
C2104       C  0.00489093  0.44795919  0.74708093    -0.24300
H2105       H  0.09682368  0.43375555  0.70315252     0.09200
H2106       H  0.07195486  0.45516781  0.71405695     0.12700
H2107       H  0.06376905  0.38473100  0.72290722     0.11500
H2108       H  0.03306818  0.38913020  0.73927366     0.12600
H2109       H  0.00699559  0.40971500  0.75048490     0.11700
H2110       H  0.04748679  0.47208124  0.71918355     0.08800
H2111       H  0.02201858  0.49149600  0.73170278     0.12000
H2112       H  0.99307034  0.44163020  0.75533383     0.13900
C2113       C  0.66197593  0.50525814  0.25442191    -0.01600
C2114       C  0.65191227  0.48760325  0.25421539    -0.09600
C2115       C  0.63166378  0.48687545  0.25350532    -0.18500
C2116       C  0.62056881  0.50390195  0.25262330     0.03900
C2117       C  0.63077611  0.52178935  0.25213420     0.18100
C2118       C  0.65118841  0.52233160  0.25336755    -0.19900
C2119       C  0.62052783  0.53903077  0.25031688    -0.21200
C2120       C  0.60041468  0.53891398  0.24887773    -0.19700
C2121       C  0.58985381  0.52159020  0.24973968     0.19500
C2122       C  0.59977852  0.50384780  0.25200571     0.01600
C2123       C  0.58841734  0.48687768  0.25384772    -0.14400
C2124       C  0.56819847  0.48747065  0.25325740    -0.12200
C2125       C  0.55839017  0.50486118  0.25042030     0.01200
C2126       C  0.56941489  0.52191360  0.24857771    -0.24300
H2127       H  0.65973618  0.47417834  0.25493701     0.09200
H2128       H  0.62510453  0.47272497  0.25342274     0.12700
H2129       H  0.65871014  0.53611031  0.25321355     0.11500
H2130       H  0.62815054  0.55274325  0.24981796     0.12600
H2131       H  0.59304066  0.55253429  0.24729773     0.11700
H2132       H  0.59473793  0.47291985  0.25610553     0.08800
H2133       H  0.56015618  0.47408340  0.25483525     0.12000
H2134       H  0.56206421  0.53552130  0.24673521     0.13900
C2135       C  0.74158461  0.33904895  0.50288451    -0.01600
C2136       C  0.73778961  0.34919282  0.52002219    -0.09600
C2137       C  0.73560493  0.36928422  0.51987848    -0.18500
C2138       C  0.73774380  0.38011211  0.50254673     0.03900
C2139       C  0.74195737  0.36980132  0.48525335     0.18100
C2140       C  0.74332737  0.34949361  0.48548212    -0.19900
C2141       C  0.74530311  0.37986925  0.46791226    -0.21200
C2142       C  0.74506002  0.39995045  0.46743727    -0.19700
C2143       C  0.74081201  0.41056750  0.48414203     0.19500
C2144       C  0.73648188  0.40078937  0.50181227     0.01600
C2145       C  0.73110549  0.41217880  0.51791568    -0.14400
C2146       C  0.73074989  0.43236271  0.51669814    -0.12200
C2147       C  0.73601748  0.44204346  0.49954475     0.01200
C2148       C  0.74090122  0.43092718  0.48326160    -0.24300
H2149       H  0.73642397  0.34150878  0.53365921     0.09200
H2150       H  0.73281564  0.37601749  0.53366362     0.12700
H2151       H  0.74656504  0.34185426  0.47218335     0.11500
H2152       H  0.74859571  0.37216196  0.45467669     0.12600
H2153       H  0.74816879  0.40724004  0.45384827     0.11700
H2154       H  0.72693598  0.40586698  0.53162121     0.08800
H2155       H  0.72668225  0.44045845  0.52945677     0.12000
H2156       H  0.74459372  0.43813265  0.46976379     0.13900
C2157       C  0.83805036  0.49981426  0.75278884    -0.01600
C2158       C  0.84700914  0.48177528  0.75237832    -0.09600
C2159       C  0.86714887  0.48017373  0.75373124    -0.18500
C2160       C  0.87913310  0.49665899  0.75606371     0.03900
C2161       C  0.86993987  0.51491739  0.75686535     0.18100
C2162       C  0.84969445  0.51635826  0.75482645    -0.19900
C2163       C  0.88098676  0.53163281  0.75998123    -0.21200
C2164       C  0.90093285  0.53066810  0.76233869    -0.19700
C2165       C  0.91051837  0.51301175  0.76120460     0.19500
C2166       C  0.89982214  0.49574047  0.75783908     0.01600
C2167       C  0.91038053  0.47841341  0.75621471    -0.14400
C2168       C  0.93061362  0.47830773  0.75775274    -0.12200
C2169       C  0.94110993  0.49534029  0.76130020     0.01200
C2170       C  0.93080808  0.51261779  0.76319000    -0.24300
H2171       H  0.83836195  0.46877139  0.75085355     0.09200
H2172       H  0.87289566  0.46580199  0.75325529     0.12700
H2173       H  0.84290998  0.53036647  0.75545727     0.11500
H2174       H  0.87412052  0.54558292  0.76076947     0.12600
H2175       H  0.90896649  0.54390852  0.76485858     0.11700
H2176       H  0.90341977  0.46473507  0.75345450     0.08800
H2177       H  0.93807588  0.46473914  0.75627953     0.12000
H2178       H  0.93865283  0.52596369  0.76576397     0.13900
C2179       C  0.33895496  0.50200396  0.75717181    -0.01600
C2180       C  0.34802541  0.52019660  0.75790532    -0.09600
C2181       C  0.36820274  0.52204336  0.75880297    -0.18500
C2182       C  0.38019493  0.50564258  0.75929299     0.03900
C2183       C  0.37097044  0.48722087  0.75883744     0.18100
C2184       C  0.35065857  0.48557801  0.75753382    -0.19900
C2185       C  0.38206546  0.47048563  0.75988149    -0.21200
C2186       C  0.40207952  0.47158428  0.76160868    -0.19700
C2187       C  0.41166092  0.48944600  0.76195730     0.19500
C2188       C  0.40092868  0.50677206  0.76045886     0.01600
C2189       C  0.41148618  0.52437425  0.76008885    -0.14400
C2190       C  0.43172694  0.52469496  0.76133802    -0.12200
C2191       C  0.44218883  0.50759229  0.76338678     0.01200
C2192       C  0.43196363  0.49002083  0.76371687    -0.24300
H2193       H  0.33947705  0.53318605  0.75763234     0.09200
H2194       H  0.37398751  0.53651056  0.75934990     0.12700
H2195       H  0.34393165  0.47140841  0.75717282     0.11500
H2196       H  0.37518388  0.45639275  0.75957818     0.12600
H2197       H  0.41014969  0.45831117  0.76259390     0.11700
H2198       H  0.40451161  0.53812386  0.75865003     0.08800
H2199       H  0.43922507  0.53847061  0.76100240     0.12000
H2200       H  0.43988133  0.47667113  0.76499949     0.13900
C2201       C  0.74305477  0.83789933  0.49679994    -0.01600
C2202       C  0.74275645  0.84770791  0.51457486    -0.09600
C2203       C  0.74327614  0.86789094  0.51532232    -0.18500
C2204       C  0.74371308  0.87913674  0.49817750     0.03900
C2205       C  0.74342224  0.86916576  0.48015658     0.18100
C2206       C  0.74351054  0.84880974  0.47962371    -0.19900
C2207       C  0.74279385  0.87958121  0.46275352    -0.21200
C2208       C  0.74237255  0.89964896  0.46281752    -0.19700
C2209       C  0.74316253  0.90993110  0.48026088     0.19500
C2210       C  0.74418093  0.89986163  0.49821015     0.01600
C2211       C  0.74589769  0.91101983  0.51531518    -0.14400
C2212       C  0.74645373  0.93123842  0.51458718    -0.12200
C2213       C  0.74495194  0.94113061  0.49689406     0.01200
C2214       C  0.74318562  0.93026500  0.47979591    -0.24300
H2215       H  0.74231623  0.83970557  0.52808012     0.09200
H2216       H  0.74298289  0.87429289  0.52954298     0.12700
H2217       H  0.74341025  0.84143917  0.46577734     0.11500
H2218       H  0.74241082  0.87213790  0.44895822     0.12600
H2219       H  0.74168308  0.90720306  0.44906406     0.11700
H2220       H  0.74717744  0.90451770  0.52945948     0.08800
H2221       H  0.74786759  0.93917979  0.52801962     0.12000
H2222       H  0.74227771  0.93766077  0.46596297     0.13900
C2223       C  0.49915299  0.74390010  0.44570768    -0.01600
C2224       C  0.48140969  0.74496936  0.43597154    -0.09600
C2225       C  0.48048957  0.74474104  0.41567560    -0.18500
C2226       C  0.49745213  0.74384386  0.40422325     0.03900
C2227       C  0.51543410  0.74272516  0.41412827     0.18100
C2228       C  0.51610190  0.74242691  0.43461308    -0.19900
C2229       C  0.53270506  0.74232998  0.40352514    -0.21200
C2230       C  0.53258467  0.74333508  0.38334732    -0.19700
C2231       C  0.51517196  0.74443272  0.37312330     0.19500
C2232       C  0.49730289  0.74437195  0.38336967     0.01600
C2233       C  0.48013820  0.74486824  0.37224444    -0.14400
C2234       C  0.48074299  0.74552810  0.35192090    -0.12200
C2235       C  0.49839564  0.74605842  0.34188176     0.01200
C2236       C  0.51556653  0.74555042  0.35267474    -0.24300
H2237       H  0.46806831  0.74604208  0.44413109     0.09200
H2238       H  0.46630283  0.74570337  0.40937485     0.12700
H2239       H  0.52992476  0.74179505  0.44193106     0.11500
H2240       H  0.54647150  0.74151375  0.41091540     0.12600
H2241       H  0.54626142  0.74323567  0.37566540     0.11700
H2242       H  0.46600120  0.74460744  0.37882348     0.08800
H2243       H  0.46725183  0.74589243  0.34401054     0.12000
H2244       H  0.52932162  0.74569238  0.34511575     0.13900
C2245       C  0.49139985  0.76019422  0.84040738    -0.01600
C2246       C  0.47421028  0.75826381  0.85108862    -0.09600
C2247       C  0.47436332  0.75833792  0.87145761    -0.18500
C2248       C  0.49179014  0.76085540  0.88191920     0.03900
C2249       C  0.50903810  0.76379411  0.87097584     0.18100
C2250       C  0.50876061  0.76299469  0.85052551    -0.19900
C2251       C  0.52649544  0.76757678  0.88050595    -0.21200
C2252       C  0.52728610  0.76834143  0.90066078    -0.19700
C2253       C  0.51077264  0.76472240  0.91192421     0.19500
C2254       C  0.49280030  0.76067987  0.90276525     0.01600
C2255       C  0.47682324  0.75621261  0.91490830    -0.14400
C2256       C  0.47867184  0.75575807  0.93519185    -0.12200
C2257       C  0.49635610  0.76009899  0.94419655     0.01200
C2258       C  0.51228481  0.76475953  0.93232856    -0.24300
H2259       H  0.46058508  0.75624592  0.84364051     0.09200
H2260       H  0.46059985  0.75662014  0.87864350     0.12700
H2261       H  0.52209088  0.76489696  0.84241611     0.11500
H2262       H  0.53966039  0.77006734  0.87229346     0.12600
H2263       H  0.54104755  0.77140685  0.90750918     0.11700
H2264       H  0.46280987  0.75257842  0.90910730     0.08800
H2265       H  0.46611498  0.75203981  0.94387793     0.12000
H2266       H  0.52613848  0.76789248  0.93896764     0.13900
C2267       C  0.74867722  0.15948542  0.99990373    -0.01600
C2268       C  0.75258638  0.14972544  0.98253144    -0.09600
C2269       C  0.75199353  0.12950764  0.98160870    -0.18500
C2270       C  0.74696702  0.11822143  0.99803754     0.03900
C2271       C  0.74235196  0.12821090  0.01543369     0.18100
C2272       C  0.74363051  0.14853229  0.01631943    -0.19900
C2273       C  0.73628340  0.11786551  0.03184400    -0.21200
C2274       C  0.73477175  0.09784239  0.03145324    -0.19700
C2275       C  0.73976400  0.08748470  0.01479982     0.19500
C2276       C  0.74615429  0.09746578  0.99787957     0.01600
C2277       C  0.75170571  0.08617012  0.98174475    -0.14400
C2278       C  0.75093561  0.06592736  0.98244239    -0.12200
C2279       C  0.74434461  0.05610882  0.99908054     0.01200
C2280       C  0.73864580  0.06715085  0.01514525    -0.24300
H2281       H  0.75635638  0.15779202  0.96956891     0.09200
H2282       H  0.75524450  0.12310986  0.96776126     0.12700
H2283       H  0.74016994  0.15588628  0.02972368     0.11500
H2284       H  0.73254245  0.12533855  0.04509458     0.12600
H2285       H  0.72991461  0.09036706  0.04442287     0.11700
H2286       H  0.75703539  0.09258579  0.96849235     0.08800
H2287       H  0.75550401  0.05792504  0.96979766     0.12000
H2288       H  0.73372506  0.05989611  0.02821988     0.13900
C2289       C  0.16091859  0.00217786  0.74178733    -0.01600
C2290       C  0.15179694  0.98425840  0.73889082    -0.09600
C2291       C  0.13157969  0.98245513  0.73898416    -0.18500
C2292       C  0.11961804  0.99867953  0.74167790     0.03900
C2293       C  0.12890595  0.01693023  0.74393130     0.18100
C2294       C  0.14926522  0.01846574  0.74424434    -0.19900
C2295       C  0.11781361  0.03359075  0.74586323    -0.21200
C2296       C  0.09771514  0.03257538  0.74564861    -0.19700
C2297       C  0.08807521  0.01482412  0.74390388     0.19500
C2298       C  0.09884213  0.99755026  0.74213454     0.01600
C2299       C  0.08828652  0.97996664  0.74118208    -0.14400
C2300       C  0.06799661  0.97961858  0.74189068    -0.12200
C2301       C  0.05744202  0.99673154  0.74315597     0.01200
C2302       C  0.06768588  0.01428902  0.74407045    -0.24300
H2303       H  0.16035317  0.97142402  0.73689503     0.09200
H2304       H  0.12571385  0.96818428  0.73677447     0.12700
H2305       H  0.15606515  0.03246794  0.74620508     0.11500
H2306       H  0.12474501  0.04756900  0.74746593     0.12600
H2307       H  0.08963156  0.04580052  0.74707429     0.11700
H2308       H  0.09533029  0.96622054  0.74013177     0.08800
H2309       H  0.06050724  0.96586199  0.74112312     0.12000
H2310       H  0.05974206  0.02762767  0.74528064     0.13900
C2311       C  0.99744590  0.74971443  0.05973677    -0.01600
C2312       C  0.97972825  0.75220998  0.06931240    -0.09600
C2313       C  0.97869506  0.75293755  0.08964294    -0.18500
C2314       C  0.99548019  0.75136501  0.10125042     0.03900
C2315       C  0.01344820  0.74922684  0.09151091     0.18100
C2316       C  0.01423828  0.74822890  0.07110040    -0.19900
C2317       C  0.03060752  0.74823042  0.10218552    -0.21200
C2318       C  0.03038084  0.74953544  0.12233242    -0.19700
C2319       C  0.01294664  0.75144795  0.13245063     0.19500
C2320       C  0.99518661  0.75203101  0.12209372     0.01600
C2321       C  0.97795402  0.75306049  0.13310248    -0.14400
C2322       C  0.97837388  0.75370232  0.15340459    -0.12200
C2323       C  0.99591712  0.75370619  0.16355919     0.01200
C2324       C  0.01318112  0.75262569  0.15289958    -0.24300
H2325       H  0.96651129  0.75350986  0.06106795     0.09200
H2326       H  0.96455846  0.75496585  0.09585846     0.12700
H2327       H  0.02812656  0.74650114  0.06405166     0.11500
H2328       H  0.04437507  0.74662800  0.09487095     0.12600
H2329       H  0.04396788  0.74891334  0.13007371     0.11700
H2330       H  0.96388975  0.75314951  0.12643715     0.08800
H2331       H  0.96480490  0.75444887  0.16121336     0.12000
H2332       H  0.02683685  0.75228933  0.16055637     0.13900
C2333       C  0.25021023  0.66014676  0.50807556    -0.01600
C2334       C  0.24845095  0.65037899  0.49035357    -0.09600
C2335       C  0.24943900  0.63016499  0.48950151    -0.18500
C2336       C  0.25189802  0.61892625  0.50650301     0.03900
C2337       C  0.25297092  0.62887926  0.52447329     0.18100
C2338       C  0.25245090  0.64916078  0.52505209    -0.19900
C2339       C  0.25444637  0.61854511  0.54186381    -0.21200
C2340       C  0.25475605  0.59850213  0.54187668    -0.19700
C2341       C  0.25420881  0.58820281  0.52446143     0.19500
C2342       C  0.25316360  0.59823696  0.50645763     0.01600
C2343       C  0.25380776  0.58709360  0.48929195    -0.14400
C2344       C  0.25535101  0.56693765  0.49004414    -0.12200
C2345       C  0.25574728  0.55711005  0.50784662     0.01200
C2346       C  0.25500937  0.56789749  0.52499312    -0.24300
H2347       H  0.24658364  0.65840948  0.47701117     0.09200
H2348       H  0.24799580  0.62369551  0.47537291     0.12700
H2349       H  0.25349658  0.65641623  0.53892175     0.11500
H2350       H  0.25516969  0.62602901  0.55562426     0.12600
H2351       H  0.25570841  0.59099740  0.55564016     0.11700
H2352       H  0.25354677  0.59360526  0.47508326     0.08800
H2353       H  0.25600100  0.55894814  0.47658480     0.12000
H2354       H  0.25565834  0.56047347  0.53883222     0.13900
C2355       C  0.25111440  0.06180741  0.49535850    -0.01600
C2356       C  0.26860090  0.07141976  0.49923888    -0.09600
C2357       C  0.26949624  0.09152960  0.50098373    -0.18500
C2358       C  0.25272260  0.10290359  0.49934286     0.03900
C2359       C  0.23480029  0.09308248  0.49652635     0.18100
C2360       C  0.23419722  0.07280148  0.49408765    -0.19900
C2361       C  0.21760988  0.10359796  0.49625593    -0.21200
C2362       C  0.21783686  0.12359638  0.49854230    -0.19700
C2363       C  0.23531398  0.13380248  0.50043842     0.19500
C2364       C  0.25305694  0.12361341  0.50051691     0.01600
C2365       C  0.27036243  0.13466038  0.50121341    -0.14400
C2366       C  0.27004054  0.15486569  0.50182662    -0.12200
C2367       C  0.25255963  0.16484607  0.50238499     0.01200
C2368       C  0.23519897  0.15416737  0.50189534    -0.24300
H2369       H  0.28183620  0.06332418  0.50058763     0.09200
H2370       H  0.28350606  0.09776086  0.50391384     0.12700
H2371       H  0.22049861  0.06552467  0.49160700     0.11500
H2372       H  0.20383937  0.09627968  0.49438989     0.12600
H2373       H  0.20423176  0.13119163  0.49839005     0.11700
H2374       H  0.28440287  0.12809845  0.50078360     0.08800
H2375       H  0.28360949  0.16277449  0.50213926     0.12000
H2376       H  0.22159046  0.16177258  0.50206772     0.13900
C2377       C  0.00251432  0.75094901  0.56104525    -0.01600
C2378       C  0.98478276  0.74682422  0.57018408    -0.09600
C2379       C  0.98325472  0.74581842  0.59045427    -0.18500
C2380       C  0.99955916  0.74871615  0.60249067     0.03900
C2381       C  0.01756569  0.75263975  0.59321194     0.18100
C2382       C  0.01884064  0.75389437  0.57279664    -0.19900
C2383       C  0.03427038  0.75519711  0.60436486    -0.21200
C2384       C  0.03356319  0.75382970  0.62450761    -0.19700
C2385       C  0.01607965  0.75014619  0.63415079     0.19500
C2386       C  0.99874200  0.74776714  0.62332937     0.01600
C2387       C  0.98139667  0.74472015  0.63390469    -0.14400
C2388       C  0.98132172  0.74411061  0.65424916    -0.12200
C2389       C  0.99850174  0.74607312  0.66483055     0.01200
C2390       C  0.01585415  0.74897397  0.65459907    -0.24300
H2391       H  0.97188492  0.74446900  0.56162125     0.09200
H2392       H  0.96912725  0.74257536  0.59627648     0.12700
H2393       H  0.03270554  0.75691361  0.56604365     0.11500
H2394       H  0.04805882  0.75816084  0.59743903     0.12600
H2395       H  0.04682043  0.75577998  0.63262682     0.11700
H2396       H  0.96761010  0.74298232  0.62686644     0.08800
H2397       H  0.96772207  0.74183483  0.66176096     0.12000
H2398       H  0.02920504  0.75075721  0.66261443     0.13900
C2399       C  0.20523176  0.90966858  0.42164181    -0.01600
C2400       C  0.19909546  0.91328988  0.44064826    -0.09600
C2401       C  0.20293735  0.93111884  0.44945983    -0.18500
C2402       C  0.21318903  0.94592676  0.43949921     0.03900
C2403       C  0.22070486  0.94159535  0.42085217     0.18100
C2404       C  0.21655652  0.92374191  0.41210618    -0.19900
C2405       C  0.23202480  0.95524708  0.41087418    -0.21200
C2406       C  0.23639942  0.97301712  0.41920993    -0.19700
C2407       C  0.22894152  0.97791034  0.43741452     0.19500
C2408       C  0.21660492  0.96471296  0.44747189     0.01600
C2409       C  0.20840483  0.97086698  0.46515866    -0.14400
C2410       C  0.21393571  0.98841148  0.47350656    -0.12200
C2411       C  0.22775133  0.00041001  0.46459755     0.01200
C2412       C  0.23453971  0.99548360  0.44611222    -0.24300
H2413       H  0.19031459  0.90274772  0.44833813     0.09200
H2414       H  0.19756106  0.93298185  0.46401575     0.12700
H2415       H  0.22157336  0.92107076  0.39745069     0.11500
H2416       H  0.23782809  0.95202465  0.39664459     0.12600
H2417       H  0.24568869  0.98300685  0.41135616     0.11700
H2418       H  0.19818111  0.96212684  0.47318057     0.08800
H2419       H  0.20879359  0.99174186  0.48796299     0.12000
H2420       H  0.24555228  0.00445594  0.43930275     0.13900
C2421       C  0.08385084  0.79869956  0.41226864    -0.01600
C2422       C  0.09193110  0.78403308  0.42360894    -0.09600
C2423       C  0.08336246  0.77826497  0.44114455    -0.18500
C2424       C  0.06660816  0.78743167  0.44824721     0.03900
C2425       C  0.05852318  0.80232744  0.43665709     0.18100
C2426       C  0.06690143  0.80748097  0.41873698    -0.19900
C2427       C  0.04239518  0.81240902  0.44323605    -0.21200
C2428       C  0.03385903  0.80785489  0.46092926    -0.19700
C2429       C  0.04099717  0.79285929  0.47237511     0.19500
C2430       C  0.05753403  0.78243497  0.46634261     0.01600
C2431       C  0.06370109  0.76705961  0.47836357    -0.14400
C2432       C  0.05295014  0.76140003  0.49475231    -0.12200
C2433       C  0.03617175  0.77123046  0.49997626     0.01200
C2434       C  0.03083864  0.78744575  0.48920410    -0.24300
H2435       H  0.10527338  0.77731416  0.41911289     0.09200
H2436       H  0.09050872  0.76701607  0.44910107     0.12700
H2437       H  0.06089912  0.81925018  0.41038529     0.11500
H2438       H  0.03630543  0.82392083  0.43461157     0.12600
H2439       H  0.02124062  0.81581990  0.46546465     0.11700
H2440       H  0.07607693  0.75842718  0.47482897     0.08800
H2441       H  0.05692061  0.74841011  0.50246621     0.12000
H2442       H  0.01749244  0.79469129  0.49285375     0.13900
C2443       C  0.02638439  0.77173001  0.22684096    -0.01600
C2444       C  0.03538658  0.78918409  0.22190770    -0.09600
C2445       C  0.04579809  0.79960671  0.23590515    -0.18500
C2446       C  0.04721337  0.79287625  0.25533589     0.03900
C2447       C  0.03927681  0.77444613  0.25968956     0.18100
C2448       C  0.02928089  0.76405737  0.24546269    -0.19900
C2449       C  0.04052440  0.76680998  0.27846034    -0.21200
C2450       C  0.04922403  0.77727803  0.29325601    -0.19700
C2451       C  0.05674221  0.79572476  0.28970573     0.19500
C2452       C  0.05579396  0.80381647  0.27069509     0.01600
C2453       C  0.06307388  0.82266996  0.26801477    -0.14400
C2454       C  0.07141546  0.83278849  0.28332652    -0.12200
C2455       C  0.07298044  0.82457201  0.30193179     0.01200
C2456       C  0.06530852  0.80608128  0.30505910    -0.24300
H2457       H  0.03335327  0.79536827  0.20762996     0.09200
H2458       H  0.05201148  0.81315702  0.23124822     0.12700
H2459       H  0.02257804  0.75035961  0.24930050     0.11500
H2460       H  0.03448370  0.75270926  0.28179369     0.12600
H2461       H  0.04986882  0.77098153  0.30763851     0.11700
H2462       H  0.06254926  0.83002750  0.25424235     0.08800
H2463       H  0.07704232  0.84712223  0.28036435     0.12000
H2464       H  0.06640487  0.79954652  0.31930980     0.13900
C2465       C  0.23205128  0.72497309  0.48155580    -0.01600
C2466       C  0.21627794  0.71938650  0.47019006    -0.09600
C2467       C  0.20638796  0.73307715  0.45902142    -0.18500
C2468       C  0.21199338  0.75285901  0.45902495     0.03900
C2469       C  0.22837727  0.75819928  0.47013723     0.18100
C2470       C  0.23826553  0.74433550  0.48091906    -0.19900
C2471       C  0.23458217  0.77746311  0.47091481    -0.21200
C2472       C  0.22471447  0.79174065  0.46098105    -0.19700
C2473       C  0.20843565  0.78712565  0.44992140     0.19500
C2474       C  0.20189318  0.76759592  0.44870028     0.01600
C2475       C  0.18546242  0.76372357  0.43729707    -0.14400
C2476       C  0.17595214  0.77850620  0.42762343    -0.12200
C2477       C  0.18234802  0.79779251  0.42883349     0.01200
C2478       C  0.19867777  0.80195963  0.44005832    -0.24300
H2479       H  0.21109415  0.70460987  0.47054048     0.09200
H2480       H  0.19415091  0.72781226  0.45091970     0.12700
H2481       H  0.25061512  0.74887226  0.48948027     0.11500
H2482       H  0.24707808  0.78156443  0.47945770     0.12600
H2483       H  0.22983495  0.80651665  0.46200466     0.11700
H2484       H  0.17959536  0.74939884  0.43551108     0.08800
H2485       H  0.16344602  0.77464439  0.41901020     0.12000
H2486       H  0.20385979  0.81671942  0.44107287     0.13900
C2487       C  0.30842358  0.93619258  0.67929545    -0.01600
C2488       C  0.29319706  0.94301704  0.66779464    -0.09600
C2489       C  0.27656088  0.95069007  0.67615493    -0.18500
C2490       C  0.27449310  0.95188173  0.69648788     0.03900
C2491       C  0.29022951  0.94563089  0.70812032     0.18100
C2492       C  0.30688505  0.93780489  0.69950194    -0.19900
C2493       C  0.28924721  0.94721013  0.72831870    -0.21200
C2494       C  0.27324566  0.95536760  0.73720314    -0.19700
C2495       C  0.25757882  0.96169111  0.72616055     0.19500
C2496       C  0.25762614  0.95948539  0.70569487     0.01600
C2497       C  0.24088762  0.96525222  0.69542408    -0.14400
C2498       C  0.22548322  0.97425271  0.70495374    -0.12200
C2499       C  0.22634290  0.97773699  0.72488907     0.01200
C2500       C  0.24214090  0.97086089  0.73545072    -0.24300
H2501       H  0.29393579  0.94210891  0.65212848     0.09200
H2502       H  0.26559504  0.95564268  0.66631454     0.12700
H2503       H  0.31847937  0.93258197  0.70858959     0.11500
H2504       H  0.30111420  0.94244809  0.73730311     0.12600
H2505       H  0.27318050  0.95686030  0.75284552     0.11700
H2506       H  0.23946920  0.96336256  0.67998480     0.08800
H2507       H  0.21344370  0.97954529  0.69653954     0.12000
H2508       H  0.24279722  0.97347574  0.75094377     0.13900
C2509       C  0.29645118  0.92056223  0.57990298    -0.01600
C2510       C  0.28832145  0.93749442  0.58724946    -0.09600
C2511       C  0.28356686  0.95271977  0.57504715    -0.18500
C2512       C  0.28683076  0.95156486  0.55489954     0.03900
C2513       C  0.29336897  0.93371832  0.54723869     0.18100
C2514       C  0.29819209  0.91840623  0.55977380    -0.19900
C2515       C  0.29553161  0.93152009  0.52717975    -0.21200
C2516       C  0.29119658  0.94660060  0.51460546    -0.19700
C2517       C  0.28525918  0.96446539  0.52182207     0.19500
C2518       C  0.28358816  0.96741386  0.54209919     0.01600
C2519       C  0.27881672  0.98613397  0.54866425    -0.14400
C2520       C  0.27407104  0.00077227  0.53557986    -0.12200
C2521       C  0.27395557  0.99718342  0.51566031     0.01200
C2522       C  0.28035926  0.97925116  0.50886884    -0.24300
H2523       H  0.28648808  0.93936201  0.60274350     0.09200
H2524       H  0.27755834  0.96529140  0.58184788     0.12700
H2525       H  0.30441594  0.90534929  0.55395168     0.11500
H2526       H  0.30041508  0.91799077  0.52116547     0.12600
H2527       H  0.29259959  0.94430998  0.49912445     0.11700
H2528       H  0.27832433  0.98980858  0.56383329     0.08800
H2529       H  0.26923997  0.01450357  0.54113081     0.12000
H2530       H  0.28056949  0.97647565  0.49339215     0.13900
C2531       C  0.40868293  0.79731916  0.58272414    -0.01600
C2532       C  0.40129982  0.78645724  0.56727356    -0.09600
C2533       C  0.41329227  0.78035403  0.55226150    -0.18500
C2534       C  0.43313562  0.78528492  0.55204638     0.03900
C2535       C  0.44073580  0.79541622  0.56832559     0.18100
C2536       C  0.42853164  0.80115299  0.58353361    -0.19900
C2537       C  0.46035996  0.80031689  0.56904458    -0.21200
C2538       C  0.47267851  0.79525906  0.55401495    -0.19700
C2539       C  0.46562427  0.78539371  0.53779154     0.19500
C2540       C  0.44570841  0.78054099  0.53632537     0.01600
C2541       C  0.43936307  0.77107767  0.51922899    -0.14400
C2542       C  0.45254027  0.76534995  0.50496147    -0.12200
C2543       C  0.47226864  0.76899268  0.50731821     0.01200
C2544       C  0.47857901  0.77968250  0.52334480    -0.24300
H2545       H  0.38595835  0.78332040  0.56641119     0.09200
H2546       H  0.40651088  0.77219731  0.54083420     0.12700
H2547       H  0.43427324  0.80976698  0.59533327     0.11500
H2548       H  0.46624049  0.80807105  0.58134961     0.12600
H2549       H  0.48787051  0.79902072  0.55512863     0.11700
H2550       H  0.42441773  0.76742875  0.51671296     0.08800
H2551       H  0.44744764  0.75695187  0.49274397     0.12000
H2552       H  0.49390917  0.78256108  0.52513369     0.13900
C2553       C  0.46131645  0.77503764  0.77668048    -0.01600
C2554       C  0.45938288  0.79505531  0.77625065    -0.09600
C2555       C  0.45028478  0.80405739  0.76058207    -0.18500
C2556       C  0.44296735  0.79316158  0.74479602     0.03900
C2557       C  0.44329352  0.77275520  0.74636305     0.18100
C2558       C  0.45253293  0.76394328  0.76213335    -0.19900
C2559       C  0.43533103  0.76127164  0.73168318    -0.21200
C2560       C  0.42772476  0.76961355  0.71502891    -0.19700
C2561       C  0.42833667  0.78962411  0.71241036     0.19500
C2562       C  0.43592861  0.80169148  0.72729510     0.01600
C2563       C  0.43685396  0.82171332  0.72369472    -0.14400
C2564       C  0.43025630  0.82943812  0.70626816    -0.12200
C2565       C  0.42240768  0.81761146  0.69173008     0.01200
C2566       C  0.42157553  0.79763754  0.69490802    -0.24300
H2567       H  0.46619147  0.80385229  0.78729948     0.09200
H2568       H  0.44976976  0.81956983  0.76093841     0.12700
H2569       H  0.45404851  0.74839593  0.76245894     0.11500
H2570       H  0.43530012  0.74569467  0.73293539     0.12600
H2571       H  0.42184052  0.76030397  0.70386582     0.11700
H2572       H  0.44281324  0.83180042  0.73397242     0.08800
H2573       H  0.43114447  0.84491915  0.70429786     0.12000
H2574       H  0.41543557  0.78832503  0.68387667     0.13900
C2575       C  0.30881795  0.80813218  0.57451402    -0.01600
C2576       C  0.28870223  0.80721699  0.57276577    -0.09600
C2577       C  0.27940585  0.78983577  0.56808960    -0.18500
C2578       C  0.29002455  0.77273965  0.56494751     0.03900
C2579       C  0.31044365  0.77386402  0.56622373     0.18100
C2580       C  0.31954578  0.79131190  0.57114976    -0.19900
C2581       C  0.32170886  0.75765422  0.56224144    -0.21200
C2582       C  0.31314532  0.74059760  0.55584095    -0.19700
C2583       C  0.29306322  0.73911758  0.55401628     0.19500
C2584       C  0.28120145  0.75482715  0.55963317     0.01600
C2585       C  0.26100030  0.75212541  0.55901222    -0.14400
C2586       C  0.25300053  0.73571637  0.55052598    -0.12200
C2587       C  0.26479008  0.72148019  0.54253240     0.01200
C2588       C  0.28477318  0.72258787  0.54542087    -0.24300
H2589       H  0.28006792  0.81989855  0.57532139     0.09200
H2590       H  0.26391370  0.79030901  0.56671241     0.12700
H2591       H  0.33515833  0.79170888  0.57240050     0.11500
H2592       H  0.33731670  0.75840617  0.56334784     0.12600
H2593       H  0.32230398  0.72862461  0.55194073     0.11700
H2594       H  0.25103407  0.76278209  0.56422771     0.08800
H2595       H  0.23748008  0.73498113  0.54855903     0.12000
H2596       H  0.29396371  0.71161688  0.53922388     0.13900
C2597       C  0.00263538  0.25677911  0.43813800    -0.01600
C2598       C  0.98485657  0.25532567  0.42848790    -0.09600
C2599       C  0.98381013  0.25541580  0.40822526    -0.18500
C2600       C  0.00066995  0.25660843  0.39663858     0.03900
C2601       C  0.01875224  0.25782157  0.40637585     0.18100
C2602       C  0.01956865  0.25827733  0.42690004    -0.19900
C2603       C  0.03591238  0.25818048  0.39554050    -0.21200
C2604       C  0.03553851  0.25703633  0.37533659    -0.19700
C2605       C  0.01797853  0.25600840  0.36529047     0.19500
C2606       C  0.00026477  0.25623746  0.37579017     0.01600
C2607       C  0.98293941  0.25616771  0.36492566    -0.14400
C2608       C  0.98319774  0.25551506  0.34462104    -0.12200
C2609       C  0.00063602  0.25456754  0.33426384     0.01200
C2610       C  0.01802056  0.25482704  0.34479447    -0.24300
H2611       H  0.97152972  0.25413535  0.43669521     0.09200
H2612       H  0.96957487  0.25409252  0.40206292     0.12700
H2613       H  0.03344087  0.25913205  0.43412319     0.11500
H2614       H  0.04977614  0.25903429  0.40276749     0.12600
H2615       H  0.04912535  0.25704887  0.36749230     0.11700
H2616       H  0.96891509  0.25683369  0.37169304     0.08800
H2617       H  0.96954916  0.25544409  0.33697409     0.12000
H2618       H  0.03163699  0.25443753  0.33701014     0.13900
C2619       C  0.07403454  0.17822598  0.19643077    -0.01600
C2620       C  0.07146531  0.17004637  0.21496295    -0.09600
C2621       C  0.06306571  0.18041114  0.23010389    -0.18500
C2622       C  0.05691551  0.19955199  0.22734082     0.03900
C2623       C  0.05897165  0.20763233  0.20839520     0.18100
C2624       C  0.06738225  0.19696644  0.19320571    -0.19900
C2625       C  0.05281713  0.22642862  0.20475268    -0.21200
C2626       C  0.04448192  0.23731530  0.21938706    -0.19700
C2627       C  0.04217789  0.22975820  0.23811061     0.19500
C2628       C  0.04859167  0.21089599  0.24255275     0.01600
C2629       C  0.04609592  0.20425223  0.26193124    -0.14400
C2630       C  0.03638931  0.21539043  0.27583915    -0.12200
C2631       C  0.02906625  0.23345926  0.27088112     0.01200
C2632       C  0.03275651  0.24077937  0.25221124    -0.24300
H2633       H  0.07628724  0.15553181  0.21794226     0.09200
H2634       H  0.06170008  0.17308439  0.24384738     0.12700
H2635       H  0.06931006  0.20351176  0.17902886     0.11500
H2636       H  0.05433641  0.23272900  0.19042325     0.12600
H2637       H  0.03961226  0.25172913  0.21596982     0.11700
H2638       H  0.05097241  0.19029186  0.26660552     0.08800
H2639       H  0.03360434  0.20937427  0.29009611     0.12000
H2640       H  0.02725322  0.25484738  0.24828352     0.13900
C2641       C  0.98809315  0.23935775  0.94076907    -0.01600
C2642       C  0.00523679  0.23506158  0.93082275    -0.09600
C2643       C  0.00611212  0.23534626  0.91050881    -0.18500
C2644       C  0.98967463  0.23968596  0.89921017     0.03900
C2645       C  0.97203556  0.24302896  0.90925017     0.18100
C2646       C  0.97146283  0.24316525  0.92977357    -0.19900
C2647       C  0.95509077  0.24630898  0.89871836    -0.21200
C2648       C  0.95531450  0.24663772  0.87849208    -0.19700
C2649       C  0.97258371  0.24422193  0.86816451     0.19500
C2650       C  0.99007503  0.24088033  0.87837313     0.01600
C2651       C  0.00724543  0.23942539  0.86727413    -0.14400
C2652       C  0.00705124  0.24136859  0.84702067    -0.12200
C2653       C  0.98975466  0.24436202  0.83694564     0.01200
C2654       C  0.97251290  0.24552410  0.84769211    -0.24300
H2655       H  0.01827169  0.23186035  0.93881303     0.09200
H2656       H  0.01986689  0.23199987  0.90404473     0.12700
H2657       H  0.95798729  0.24610358  0.93719849     0.11500
H2658       H  0.94152349  0.24864690  0.90618991     0.12600
H2659       H  0.94190886  0.24921099  0.87086884     0.11700
H2660       H  0.02114911  0.23724361  0.87388053     0.08800
H2661       H  0.02057350  0.24037553  0.83916214     0.12000
H2662       H  0.95905207  0.24806460  0.84014233     0.13900
C2663       C  0.01444526  0.21893493  0.00477125    -0.01600
C2664       C  0.00662350  0.20916345  0.02080922    -0.09600
C2665       C  0.01827747  0.20325657  0.03611924    -0.18500
C2666       C  0.03831558  0.20724530  0.03606615     0.03900
C2667       C  0.04647172  0.21578662  0.01906041     0.18100
C2668       C  0.03450206  0.22153662  0.00356365    -0.19900
C2669       C  0.06639844  0.21928052  0.01803202    -0.21200
C2670       C  0.07832464  0.21484468  0.03362984    -0.19700
C2671       C  0.07059212  0.20721887  0.05085536     0.19500
C2672       C  0.05045293  0.20341592  0.05239054     0.01600
C2673       C  0.04329824  0.19641778  0.07037511    -0.14400
C2674       C  0.05569479  0.19279635  0.08593281    -0.12200
C2675       C  0.07564649  0.19593046  0.08418176     0.01200
C2676       C  0.08291995  0.20335517  0.06657137    -0.24300
H2677       H  0.99113287  0.20700598  0.02198466     0.09200
H2678       H  0.01106853  0.19608928  0.04801858     0.12700
H2679       H  0.04061012  0.22928729  0.99128771     0.11500
H2680       H  0.07279334  0.22564701  0.00513105     0.12600
H2681       H  0.09368870  0.21774468  0.03233641     0.11700
H2682       H  0.02816631  0.19362929  0.07292494     0.08800
H2683       H  0.04963577  0.18698516  0.09923862     0.12000
H2684       H  0.09832081  0.20588470  0.06493439     0.13900
C2685       C  0.34219752  0.99915558  0.24471171    -0.01600
C2686       C  0.35208396  0.01687828  0.24377211    -0.09600
C2687       C  0.37231560  0.01778746  0.24437890    -0.18500
C2688       C  0.38350413  0.00084995  0.24554930     0.03900
C2689       C  0.37344900  0.98286448  0.24587595     0.18100
C2690       C  0.35306038  0.98219361  0.24585201    -0.19900
C2691       C  0.38381177  0.96562492  0.24600826    -0.21200
C2692       C  0.40393302  0.96581713  0.24561274    -0.19700
C2693       C  0.41430233  0.98325324  0.24568211     0.19500
C2694       C  0.40425858  0.00104714  0.24610828     0.01600
C2695       C  0.41546492  0.01819191  0.24731870    -0.14400
C2696       C  0.43570523  0.01765740  0.24779468    -0.12200
C2697       C  0.44554113  0.00013624  0.24659956     0.01200
C2698       C  0.43468903  0.98297760  0.24548904    -0.24300
H2699       H  0.34410943  0.03020158  0.24281853     0.09200
H2700       H  0.37880842  0.03195019  0.24357114     0.12700
H2701       H  0.34562538  0.96836953  0.24627555     0.11500
H2702       H  0.37628705  0.95185200  0.24615255     0.12600
H2703       H  0.41145326  0.95218879  0.24545521     0.11700
H2704       H  0.40898328  0.03222340  0.24823529     0.08800
H2705       H  0.44374090  0.03109610  0.24875962     0.12000
H2706       H  0.44215383  0.96932015  0.24490340     0.13900
C2707       C  0.20491708  0.92735781  0.32177995    -0.01600
C2708       C  0.22306516  0.93135500  0.33002370    -0.09600
C2709       C  0.23843452  0.93826318  0.31880195    -0.18500
C2710       C  0.23625134  0.94154358  0.29873795     0.03900
C2711       C  0.21773489  0.93789711  0.29043788     0.18100
C2712       C  0.20233065  0.93083421  0.30194162    -0.19900
C2713       C  0.21469292  0.94139724  0.27070164    -0.21200
C2714       C  0.22934453  0.94923604  0.25922298    -0.19700
C2715       C  0.24753510  0.95341189  0.26709722     0.19500
C2716       C  0.25154868  0.94896037  0.28676357     0.01600
C2717       C  0.27053879  0.95267961  0.29363330    -0.14400
C2718       C  0.28426741  0.96225591  0.28201810    -0.12200
C2719       C  0.27949601  0.96824449  0.26327832     0.01200
C2720       C  0.26144195  0.96291506  0.25563666    -0.24300
H2721       H  0.22555683  0.92884391  0.34532477     0.09200
H2722       H  0.25180903  0.94102176  0.32630341     0.12700
H2723       H  0.18847750  0.92760083  0.29534249     0.11500
H2724       H  0.20072541  0.93852105  0.26419880     0.12600
H2725       H  0.22630803  0.95239554  0.24414066     0.11700
H2726       H  0.27501619  0.94892054  0.30809816     0.08800
H2727       H  0.29815432  0.96611524  0.28816824     0.12000
H2728       H  0.25777577  0.96723794  0.24097954     0.13900
C2729       C  0.27885298  0.02692793  0.22554012    -0.01600
C2730       C  0.28467929  0.03633470  0.20850331    -0.09600
C2731       C  0.27152067  0.04751724  0.19796785    -0.18500
C2732       C  0.25206863  0.04950148  0.20422862     0.03900
C2733       C  0.24676635  0.04092532  0.22220032     0.18100
C2734       C  0.26010219  0.02997598  0.23261756    -0.19900
C2735       C  0.22794290  0.04265179  0.22940796    -0.21200
C2736       C  0.21394471  0.05223606  0.21883599    -0.19700
C2737       C  0.21838096  0.06028721  0.20074717     0.19500
C2738       C  0.23754703  0.05922032  0.19322915     0.01600
C2739       C  0.24115560  0.06752721  0.17485348    -0.14400
C2740       C  0.22641253  0.07643720  0.16445133    -0.12200
C2741       C  0.20751117  0.07746742  0.17189701     0.01200
C2742       C  0.20366030  0.06931220  0.19010813    -0.24300
H2743       H  0.29911227  0.03428624  0.20281209     0.09200
H2744       H  0.27683675  0.05398817  0.18474984     0.12700
H2745       H  0.25555576  0.02307786  0.24603111     0.11500
H2746       H  0.22390833  0.03622112  0.24319550     0.12600
H2747       H  0.19944698  0.05308827  0.22472877     0.11700
H2748       H  0.25519502  0.06729237  0.16807968     0.08800
H2749       H  0.22994369  0.08263922  0.15043735     0.12000
H2750       H  0.18920248  0.07010662  0.19611938     0.13900
C2751       C  0.24504627  0.94337893  0.99601265    -0.01600
C2752       C  0.24200040  0.93387679  0.01381018    -0.09600
C2753       C  0.24349064  0.91366296  0.01534345    -0.18500
C2754       C  0.24768746  0.90211880  0.99893631     0.03900
C2755       C  0.25037914  0.91182964  0.98091425     0.18100
C2756       C  0.24936842  0.93208895  0.97971004    -0.19900
C2757       C  0.25382847  0.90127452  0.96400790    -0.21200
C2758       C  0.25435490  0.88125753  0.96444482    -0.19700
C2759       C  0.25193442  0.87115948  0.98188208     0.19500
C2760       C  0.24899080  0.88136586  0.99951227     0.01600
C2761       C  0.24758446  0.87026845  0.01677486    -0.14400
C2762       C  0.24870162  0.84998919  0.01639163    -0.12200
C2763       C  0.25081937  0.84001897  0.99880893     0.01200
C2764       C  0.25247334  0.85084911  0.98166231    -0.24300
H2765       H  0.23864347  0.94212159  0.02667937     0.09200
H2766       H  0.24098901  0.90739189  0.02946916     0.12700
H2767       H  0.25153235  0.93908473  0.96578412     0.11500
H2768       H  0.25585395  0.90856255  0.95022057     0.12600
H2769       H  0.25676353  0.87359873  0.95098621     0.11700
H2770       H  0.24576269  0.87692431  0.03077145     0.08800
H2771       H  0.24748400  0.84205026  0.02989186     0.12000
H2772       H  0.25446265  0.84340949  0.96800014     0.13900
C2773       C  0.22084682  0.00831193  0.01715027    -0.01600
C2774       C  0.22341096  0.00760097  0.03724496    -0.09600
C2775       C  0.21919743  0.02373716  0.04875913    -0.18500
C2776       C  0.21258643  0.04119696  0.04035177     0.03900
C2777       C  0.20887068  0.04126465  0.02012790     0.18100
C2778       C  0.21262931  0.02487927  0.00894504    -0.19900
C2779       C  0.20224919  0.05795689  0.01092975    -0.21200
C2780       C  0.19918363  0.07473560  0.02140090    -0.19700
C2781       C  0.20275156  0.07531440  0.04133883     0.19500
C2782       C  0.20971058  0.05862975  0.05109185     0.01600
C2783       C  0.21355571  0.06021504  0.07111847    -0.14400
C2784       C  0.20963574  0.07720811  0.08117803    -0.12200
C2785       C  0.20178221  0.09331562  0.07173672     0.01200
C2786       C  0.19892173  0.09238353  0.05164664    -0.24300
H2787       H  0.22994141  0.99510143  0.04388898     0.09200
H2788       H  0.22193155  0.02235530  0.06407224     0.12700
H2789       H  0.21053584  0.02553994  0.99336451     0.11500
H2790       H  0.19951911  0.05807382  0.99545801     0.12600
H2791       H  0.19396213  0.08736098  0.01383310     0.11700
H2792       H  0.21928477  0.04845490  0.07949065     0.08800
H2793       H  0.21212974  0.07742731  0.09667719     0.12000
H2794       H  0.19284866  0.10464946  0.04412670     0.13900
C2795       C  0.25632404  0.33859950  0.98804777    -0.01600
C2796       C  0.27397581  0.34819578  0.99088613    -0.09600
C2797       C  0.27501521  0.36840492  0.99119892    -0.18500
C2798       C  0.25837668  0.37975013  0.98819618     0.03900
C2799       C  0.24079142  0.36991415  0.98383729     0.18100
C2800       C  0.23980530  0.34957005  0.98431530    -0.19900
C2801       C  0.22427570  0.38046482  0.97918404    -0.21200
C2802       C  0.22474948  0.40055720  0.97904193    -0.19700
C2803       C  0.24151680  0.41069666  0.98434887     0.19500
C2804       C  0.25849984  0.40043904  0.98933853     0.01600
C2805       C  0.27460532  0.41132738  0.99588388    -0.14400
C2806       C  0.27387790  0.43148208  0.99730268    -0.12200
C2807       C  0.25733110  0.44160864  0.99176649     0.01200
C2808       C  0.24125053  0.43103734  0.98511546    -0.24300
H2809       H  0.28694494  0.34000164  0.99356502     0.09200
H2810       H  0.28905231  0.37478201  0.99369542     0.12700
H2811       H  0.22615949  0.34222080  0.98172222     0.11500
H2812       H  0.21088461  0.37311507  0.97555134     0.12600
H2813       H  0.21171799  0.40822792  0.97526197     0.11700
H2814       H  0.28779185  0.40459588  0.00051596     0.08800
H2815       H  0.28646868  0.43922016  0.00256591     0.12000
H2816       H  0.22823921  0.43863971  0.98110299     0.13900
C2817       C  0.17765987  0.20204041  0.06295281    -0.01600
C2818       C  0.19784012  0.20223331  0.06400714    -0.09600
C2819       C  0.20856595  0.21775755  0.05653721    -0.18500
C2820       C  0.19937858  0.23351740  0.04742300     0.03900
C2821       C  0.17899904  0.23262254  0.04524025     0.18100
C2822       C  0.16834406  0.21721581  0.05336513    -0.19900
C2823       C  0.16941065  0.24709362  0.03494342    -0.21200
C2824       C  0.17971647  0.26222793  0.02634816    -0.19700
C2825       C  0.19977150  0.26375357  0.02857436     0.19500
C2826       C  0.20973762  0.24981673  0.03985873     0.01600
C2827       C  0.22970733  0.25268629  0.04290625    -0.14400
C2828       C  0.23970810  0.26746083  0.03338716    -0.12200
C2829       C  0.23021945  0.27996375  0.02069314     0.01200
C2830       C  0.21009836  0.27861140  0.01894435    -0.24300
H2831       H  0.20533537  0.19070930  0.07137323     0.09200
H2832       H  0.22404177  0.21693095  0.05793893     0.12700
H2833       H  0.15271336  0.21706236  0.05231359     0.11500
H2834       H  0.15387126  0.24645019  0.03312201     0.12600
H2835       H  0.17194352  0.27282101  0.01792265     0.11700
H2836       H  0.23806907  0.24346389  0.05219811     0.08800
H2837       H  0.25527312  0.26832702  0.03492002     0.12000
H2838       H  0.20271210  0.28814898  0.00899816     0.13900
C2839       C  0.84643322  0.99772012  0.24366994    -0.01600
C2840       C  0.85665527  0.98035324  0.24338145    -0.09600
C2841       C  0.87689565  0.98018160  0.24361753    -0.18500
C2842       C  0.88782518  0.99752062  0.24376553     0.03900
C2843       C  0.87746420  0.01514883  0.24346215     0.18100
C2844       C  0.85702348  0.01510745  0.24380219    -0.19900
C2845       C  0.88758732  0.03271750  0.24263790    -0.21200
C2846       C  0.90772164  0.03319271  0.24207884    -0.19700
C2847       C  0.91837703  0.01613772  0.24286232     0.19500
C2848       C  0.90860606  0.99803866  0.24402333     0.01600
C2849       C  0.92010144  0.98132656  0.24570034    -0.14400
C2850       C  0.94034059  0.98256948  0.24620439    -0.12200
C2851       C  0.94993748  0.00039176  0.24460233     0.01200
C2852       C  0.93877449  0.01711621  0.24275924    -0.24300
H2853       H  0.84892537  0.96670512  0.24319801     0.09200
H2854       H  0.88358943  0.96622419  0.24338093     0.12700
H2855       H  0.84934281  0.02865298  0.24369830     0.11500
H2856       H  0.87986221  0.04622530  0.24225223     0.12600
H2857       H  0.91503053  0.04705975  0.24128651     0.11700
H2858       H  0.91385365  0.96709318  0.24702078     0.08800
H2859       H  0.94855593  0.96943722  0.24764697     0.12000
H2860       H  0.94599041  0.03102770  0.24177017     0.13900
C2861       C  0.01380659  0.97785036  0.26905516    -0.01600
C2862       C  0.01188970  0.95776970  0.26885409    -0.09600
C2863       C  0.02652530  0.94613891  0.27655907    -0.18500
C2864       C  0.04358148  0.95438024  0.28461371     0.03900
C2865       C  0.04469952  0.97477642  0.28585366     0.18100
C2866       C  0.02992659  0.98616669  0.27820814    -0.19900
C2867       C  0.06091165  0.98380631  0.29401976    -0.21200
C2868       C  0.07641727  0.97303444  0.30056126    -0.19700
C2869       C  0.07621664  0.95294780  0.29894629     0.19500
C2870       C  0.05974553  0.94329518  0.29106572     0.01600
C2871       C  0.06039891  0.92302948  0.28962064    -0.14400
C2872       C  0.07657284  0.91284087  0.29581348    -0.12200
C2873       C  0.09277015  0.92234353  0.30372102     0.01200
C2874       C  0.09244573  0.94248013  0.30517191    -0.24300
H2875       H  0.99962392  0.95104685  0.26176008     0.09200
H2876       H  0.02433707  0.93077928  0.27550469     0.12700
H2877       H  0.03142351  0.00174686  0.27853730     0.11500
H2878       H  0.06173876  0.99937693  0.29509157     0.12600
H2879       H  0.08880438  0.98051115  0.30664561     0.11700
H2880       H  0.04863953  0.91462056  0.28373920     0.08800
H2881       H  0.07622431  0.89727795  0.29458836     0.12000
H2882       H  0.10469054  0.95002053  0.31147315     0.13900
C2883       C  0.01218347  0.03049841  0.22388968    -0.01600
C2884       C  0.02344572  0.02315274  0.20879527    -0.09600
C2885       C  0.03995983  0.03296951  0.20235017    -0.18500
C2886       C  0.04588129  0.05044501  0.21109965     0.03900
C2887       C  0.03343260  0.05867896  0.22523181     0.18100
C2888       C  0.01682201  0.04859482  0.23159086    -0.19900
C2889       C  0.03811936  0.07649790  0.23354237    -0.21200
C2890       C  0.05494974  0.08628932  0.22818739    -0.19700
C2891       C  0.06787509  0.07817458  0.21493373     0.19500
C2892       C  0.06376807  0.05991974  0.20652495     0.01600
C2893       C  0.07793363  0.05180070  0.19423516    -0.14400
C2894       C  0.09488450  0.06194410  0.18956569    -0.12200
C2895       C  0.09817786  0.08052088  0.19679753     0.01200
C2896       C  0.08478507  0.08835555  0.20981893    -0.24300
H2897       H  0.02022954  0.00900991  0.20292102     0.09200
H2898       H  0.04809151  0.02625509  0.19090019     0.12700
H2899       H  0.00835630  0.05411530  0.24357525     0.11500
H2900       H  0.02868736  0.08292233  0.24424600     0.12600
H2901       H  0.05803699  0.10017707  0.23470780     0.11700
H2902       H  0.07627909  0.03768129  0.18793320     0.08800
H2903       H  0.10493217  0.05564341  0.17937117     0.12000
H2904       H  0.08727204  0.10270653  0.21555917     0.13900
C2905       C  0.56266780  0.99831484  0.74845387    -0.01600
C2906       C  0.57205188  0.98097131  0.74424868    -0.09600
C2907       C  0.59228906  0.98007218  0.74335203    -0.18500
C2908       C  0.60396196  0.99668835  0.74629733     0.03900
C2909       C  0.59436205  0.01436117  0.74995593     0.18100
C2910       C  0.57402651  0.01495077  0.75129988    -0.19900
C2911       C  0.60510840  0.03141086  0.75219992    -0.21200
C2912       C  0.62518370  0.03133996  0.75097557    -0.19700
C2913       C  0.63515596  0.01414663  0.74792005     0.19500
C2914       C  0.62474032  0.99649982  0.74572226     0.01600
C2915       C  0.63564013  0.97947068  0.74343111    -0.14400
C2916       C  0.65591704  0.97996627  0.74359475    -0.12200
C2917       C  0.66609419  0.99742862  0.74553917     0.01200
C2918       C  0.65553607  0.01449691  0.74741635    -0.24300
H2919       H  0.56369848  0.96790388  0.74191120     0.09200
H2920       H  0.59838510  0.96620385  0.74013960     0.12700
H2921       H  0.56699368  0.02852895  0.75425293     0.11500
H2922       H  0.59791707  0.04495989  0.75485277     0.12600
H2923       H  0.63299680  0.04483595  0.75273067     0.11700
H2924       H  0.62889448  0.96549386  0.74189260     0.08800
H2925       H  0.66369941  0.96658290  0.74206723     0.12000
H2926       H  0.66323145  0.02807144  0.74914915     0.13900
C2927       C  0.49702925  0.97549293  0.72853351    -0.01600
C2928       C  0.48058419  0.98431045  0.72082808    -0.09600
C2929       C  0.46503122  0.97342127  0.71412885    -0.18500
C2930       C  0.46527591  0.95314413  0.71496720     0.03900
C2931       C  0.48259415  0.94416364  0.72137904     0.18100
C2932       C  0.49830619  0.95538898  0.72811923    -0.19900
C2933       C  0.48382877  0.92405501  0.72155553    -0.21200
C2934       C  0.46826569  0.91270712  0.71561848    -0.19700
C2935       C  0.45091184  0.92116391  0.70978047     0.19500
C2936       C  0.44900023  0.94148990  0.70965838     0.01600
C2937       C  0.43081991  0.94917837  0.70439508    -0.14400
C2938       C  0.41561940  0.93723014  0.69826140    -0.12200
C2939       C  0.41803664  0.91727334  0.69728877     0.01200
C2940       C  0.43555308  0.90937242  0.70369482    -0.24300
H2941       H  0.47941092  0.99986024  0.72080198     0.09200
H2942       H  0.45279499  0.98138984  0.70861618     0.12700
H2943       H  0.51097068  0.94847366  0.73413122     0.11500
H2944       H  0.49693700  0.91704923  0.72630127     0.12600
H2945       H  0.46976421  0.89716290  0.71573175     0.11700
H2946       H  0.42793539  0.96451547  0.70466952     0.08800
H2947       H  0.40227292  0.94367093  0.69348591     0.12000
H2948       H  0.43753183  0.89386091  0.70333761     0.13900
C2949       C  0.50301686  0.24875013  0.55149206    -0.01600
C2950       C  0.50419004  0.26630577  0.56142252    -0.09600
C2951       C  0.50542089  0.26682761  0.58168919    -0.18500
C2952       C  0.50496244  0.24967972  0.59285876     0.03900
C2953       C  0.50276102  0.23192379  0.58277214     0.18100
C2954       C  0.50233854  0.23156964  0.56228166    -0.19900
C2955       C  0.50077913  0.21467252  0.59322973    -0.21200
C2956       C  0.50093769  0.21465407  0.61345293    -0.19700
C2957       C  0.50383630  0.23178755  0.62381422     0.19500
C2958       C  0.50631974  0.24950760  0.61364383     0.01600
C2959       C  0.51048138  0.26618168  0.62471824    -0.14400
C2960       C  0.51190247  0.26531204  0.64497006    -0.12200
C2961       C  0.50880406  0.24795745  0.65504191     0.01200
C2962       C  0.50462845  0.23124711  0.64428670    -0.24300
H2963       H  0.50446379  0.27975659  0.55340555     0.09200
H2964       H  0.50631184  0.28089491  0.58824329     0.12700
H2965       H  0.50095186  0.21794313  0.55471880     0.11500
H2966       H  0.49886278  0.20109199  0.58571051     0.12600
H2967       H  0.49914256  0.20105519  0.62104643     0.11700
H2968       H  0.51319574  0.28003487  0.61808682     0.08800
H2969       H  0.51532698  0.27840133  0.65282540     0.12000
H2970       H  0.50260801  0.21764356  0.65183037     0.13900
C2971       C  0.49935506  0.24202384  0.15956753    -0.01600
C2972       C  0.48224125  0.23911047  0.14911602    -0.09600
C2973       C  0.48255016  0.23702715  0.12888738    -0.18500
C2974       C  0.50007238  0.23835755  0.11828127     0.03900
C2975       C  0.51737174  0.24154557  0.12896746     0.18100
C2976       C  0.51690811  0.24290768  0.14937455    -0.19900
C2977       C  0.53501681  0.24375736  0.11920018    -0.21200
C2978       C  0.53585768  0.24329190  0.09903521    -0.19700
C2979       C  0.51915285  0.24011242  0.08804727     0.19500
C2980       C  0.50106372  0.23712392  0.09749388     0.01600
C2981       C  0.48483293  0.23307613  0.08567086    -0.14400
C2982       C  0.48646182  0.23244040  0.06540334    -0.12200
C2983       C  0.50418439  0.23611973  0.05612241     0.01200
C2984       C  0.52047888  0.23990995  0.06762964    -0.24300
H2985       H  0.46851601  0.23827632  0.15667189     0.09200
H2986       H  0.46879294  0.23483636  0.12190823     0.12700
H2987       H  0.53020793  0.24532859  0.15732038     0.11500
H2988       H  0.54825418  0.24623131  0.12721463     0.12600
H2989       H  0.54972591  0.24540668  0.09197095     0.11700
H2990       H  0.47070642  0.23018592  0.09168077     0.08800
H2991       H  0.47365497  0.22936539  0.05692101     0.12000
H2992       H  0.53434343  0.24244076  0.06067280     0.13900
C2993       C  0.26377888  0.00490197  0.96340217    -0.01600
C2994       C  0.25723307  0.00905683  0.94470314    -0.09600
C2995       C  0.26443383  0.02515958  0.93455787    -0.18500
C2996       C  0.27806632  0.03792434  0.94316040     0.03900
C2997       C  0.28492079  0.03324266  0.96197522     0.18100
C2998       C  0.27797271  0.01677772  0.97167971    -0.19900
C2999       C  0.29806007  0.04544369  0.97142108    -0.21200
C3000       C  0.30475119  0.06222930  0.96253770    -0.19700
C3001       C  0.29852075  0.06725056  0.94394050     0.19500
C3002       C  0.28498210  0.05524712  0.93400350     0.01600
C3003       C  0.27913798  0.06105779  0.91528963    -0.14400
C3004       C  0.28718085  0.07741239  0.90646045    -0.12200
C3005       C  0.30108473  0.08877464  0.91598748     0.01200
C3006       C  0.30624074  0.08391996  0.93499079    -0.24300
H3007       H  0.24565261  0.00053890  0.93841212     0.09200
H3008       H  0.25847294  0.02765888  0.92036343     0.12700
H3009       H  0.28247425  0.01401004  0.98648387     0.11500
H3010       H  0.30316420  0.04200877  0.98585742     0.12600
H3011       H  0.31501008  0.07127934  0.97022597     0.11700
H3012       H  0.26877646  0.05298627  0.90687465     0.08800
H3013       H  0.28288674  0.08087104  0.89176806     0.12000
H3014       H  0.31711761  0.09247672  0.94241231     0.13900
C3015       C  0.32974617  0.19585371  0.92645474    -0.01600
C3016       C  0.31048935  0.19249875  0.93177833    -0.09600
C3017       C  0.29958658  0.20702671  0.94044492    -0.18500
C3018       C  0.30764287  0.22553621  0.94411241     0.03900
C3019       C  0.32746240  0.22855534  0.93964443     0.18100
C3020       C  0.33823317  0.21383852  0.93087214    -0.19900
C3021       C  0.33633834  0.24635115  0.94366224    -0.21200
C3022       C  0.32589465  0.26132529  0.95193723    -0.19700
C3023       C  0.30620604  0.25903046  0.95612589     0.19500
C3024       C  0.29678862  0.24111710  0.95206361     0.01600
C3025       C  0.27684189  0.23960226  0.95600028    -0.14400
C3026       C  0.26690737  0.25476952  0.96444139    -0.12200
C3027       C  0.27627633  0.27212175  0.96925461     0.01200
C3028       C  0.29590315  0.27438287  0.96464555    -0.24300
H3029       H  0.30358443  0.17878461  0.92863848     0.09200
H3030       H  0.28484298  0.20332250  0.94396188     0.12700
H3031       H  0.35322647  0.21658239  0.92708756     0.11500
H3032       H  0.35150095  0.24871107  0.94038303     0.12600
H3033       H  0.33325086  0.27484186  0.95496630     0.11700
H3034       H  0.26846041  0.22683690  0.95285475     0.08800
H3035       H  0.25169072  0.25271230  0.96766433     0.12000
H3036       H  0.30330761  0.28768667  0.96842902     0.13900
C3037       C  0.42905359  0.19284263  0.90573062    -0.01600
C3038       C  0.44888086  0.18908304  0.90609618    -0.09600
C3039       C  0.45965524  0.19212076  0.92297763    -0.18500
C3040       C  0.45089340  0.19910053  0.94014874     0.03900
C3041       C  0.43101298  0.20384137  0.93941420     0.18100
C3042       C  0.42034240  0.20059645  0.92240847    -0.19900
C3043       C  0.42185651  0.21169900  0.95569148    -0.21200
C3044       C  0.43220838  0.21555044  0.97254978    -0.19700
C3045       C  0.45183689  0.21107907  0.97377312     0.19500
C3046       C  0.46124599  0.20208008  0.95782829     0.01600
C3047       C  0.48073794  0.19679636  0.96015976    -0.14400
C3048       C  0.49101356  0.20223265  0.97663792    -0.12200
C3049       C  0.48223213  0.21281981  0.99144735     0.01200
C3050       C  0.46239642  0.21640321  0.99042752    -0.24300
H3051       H  0.45598370  0.18303977  0.89352094     0.09200
H3052       H  0.47482190  0.18886486  0.92212503     0.12700
H3053       H  0.40501629  0.20369290  0.92235732     0.11500
H3054       H  0.40666079  0.21529401  0.95523543     0.12600
H3055       H  0.42484768  0.22222192  0.98465296     0.11700
H3056       H  0.48861441  0.18900872  0.94924452     0.08800
H3057       H  0.50635186  0.19928952  0.97723104     0.12000
H3058       H  0.45557675  0.22474155  0.00178132     0.13900
C3059       C  0.30269533  0.07034660  0.81625882    -0.01600
C3060       C  0.30260765  0.07173047  0.79602372    -0.09600
C3061       C  0.28641902  0.06576172  0.78538033    -0.18500
C3062       C  0.26982914  0.05792446  0.79471865     0.03900
C3063       C  0.27043969  0.05564495  0.81518237     0.18100
C3064       C  0.28661463  0.06208168  0.82569963    -0.19900
C3065       C  0.25488880  0.04699638  0.82504842    -0.21200
C3066       C  0.23892820  0.03999212  0.81494550    -0.19700
C3067       C  0.23782915  0.04200246  0.79478012     0.19500
C3068       C  0.25293552  0.05167949  0.78447402     0.01600
C3069       C  0.25066456  0.05421374  0.76427825    -0.14400
C3070       C  0.23527490  0.04552276  0.75447504    -0.12200
C3071       C  0.22145731  0.03441728  0.76443956     0.01200
C3072       C  0.22225651  0.03347024  0.78470091    -0.24300
H3073       H  0.31474171  0.07828613  0.78845576     0.09200
H3074       H  0.28734000  0.06741266  0.76986270     0.12700
H3075       H  0.28658714  0.06093429  0.84139316     0.11500
H3076       H  0.25527309  0.04522393  0.84066403     0.12600
H3077       H  0.22744635  0.03278342  0.82294564     0.11700
H3078       H  0.26092520  0.06221214  0.75556842     0.08800
H3079       H  0.23492161  0.04631986  0.73878182     0.12000
H3080       H  0.21174092  0.02465853  0.79244397     0.13900
C3081       C  0.50190166  0.02691111  0.77425010    -0.01600
C3082       C  0.48945025  0.01909248  0.78831851    -0.09600
C3083       C  0.47276304  0.02875623  0.79397284    -0.18500
C3084       C  0.46788424  0.04660786  0.78549301     0.03900
C3085       C  0.48165278  0.05546994  0.77285844     0.18100
C3086       C  0.49844681  0.04552866  0.76726796    -0.19900
C3087       C  0.47802766  0.07372849  0.76507396    -0.21200
C3088       C  0.46090290  0.08323482  0.76932031    -0.19700
C3089       C  0.44661974  0.07440935  0.78083346     0.19500
C3090       C  0.44973728  0.05579921  0.78878988     0.01600
C3091       C  0.43433189  0.04699106  0.79919893    -0.14400
C3092       C  0.41699323  0.05671218  0.80248036    -0.12200
C3093       C  0.41445663  0.07557081  0.79571308     0.01200
C3094       C  0.42926799  0.08416229  0.78456666    -0.24300
H3095       H  0.49176113  0.00461033  0.79371120     0.09200
H3096       H  0.46361996  0.02159727  0.80448358     0.12700
H3097       H  0.50783837  0.05150919  0.75611948     0.11500
H3098       H  0.48847579  0.08067710  0.75556294     0.12600
H3099       H  0.45862424  0.09742430  0.76317823     0.11700
H3100       H  0.43526333  0.03258685  0.80499390     0.08800
H3101       H  0.40590795  0.04977091  0.81122586     0.12000
H3102       H  0.42747673  0.09872675  0.77915847     0.13900
C3103       C  0.49156120  0.22001330  0.72001697    -0.01600
C3104       C  0.47416552  0.21122471  0.71442459    -0.09600
C3105       C  0.46264108  0.20135856  0.72812202    -0.18500
C3106       C  0.46813794  0.20021368  0.74794800     0.03900
C3107       C  0.48603694  0.20872516  0.75328586     0.18100
C3108       C  0.49755765  0.21807169  0.73940149    -0.19900
C3109       C  0.49222674  0.20839016  0.77260180    -0.21200
C3110       C  0.48083713  0.20000279  0.78697288    -0.19700
C3111       C  0.46307142  0.19148151  0.78237991     0.19500
C3112       C  0.45654607  0.19124323  0.76275713     0.01600
C3113       C  0.43872012  0.18205195  0.75888969    -0.14400
C3114       C  0.42799835  0.17338796  0.77376303    -0.12200
C3115       C  0.43442371  0.17369989  0.79309332     0.01200
C3116       C  0.45190432  0.18300329  0.79731959    -0.24300
H3117       H  0.46913310  0.21251598  0.69962509     0.09200
H3118       H  0.44928652  0.19523283  0.72287184     0.12700
H3119       H  0.51111358  0.22451037  0.74402643     0.11500
H3120       H  0.50590143  0.21492901  0.77669237     0.12600
H3121       H  0.48598990  0.20016398  0.80180042     0.11700
H3122       H  0.43277311  0.18112354  0.74449135     0.08800
H3123       H  0.41447628  0.16633952  0.77004611     0.12000
H3124       H  0.45709640  0.18315023  0.81214035     0.13900
C3125       C  0.68070790  0.29714584  0.92669907    -0.01600
C3126       C  0.69972301  0.30138757  0.93224700    -0.09600
C3127       C  0.71164038  0.28692681  0.93965815    -0.18500
C3128       C  0.70479939  0.26770086  0.94181570     0.03900
C3129       C  0.68531134  0.26370793  0.93671349     0.18100
C3130       C  0.67359400  0.27830007  0.92928479    -0.19900
C3131       C  0.67753193  0.24514656  0.93902211    -0.21200
C3132       C  0.68854980  0.23044527  0.94682187    -0.19700
C3133       C  0.70768309  0.23388865  0.95232891     0.19500
C3134       C  0.71629476  0.25241739  0.94940171     0.01600
C3135       C  0.73581988  0.25493343  0.95482804    -0.14400
C3136       C  0.74554166  0.24042516  0.96476842    -0.12200
C3137       C  0.73634813  0.22284382  0.96911294     0.01200
C3138       C  0.71785755  0.21922864  0.96186351    -0.24300
H3139       H  0.70559664  0.31579925  0.93034570     0.09200
H3140       H  0.72611324  0.29123526  0.94355448     0.12700
H3141       H  0.65883307  0.27483916  0.92524314     0.11500
H3142       H  0.66267745  0.24204850  0.93507870     0.12600
H3143       H  0.68192630  0.21637113  0.94892099     0.11700
H3144       H  0.74367299  0.26821104  0.95237674     0.08800
H3145       H  0.75995596  0.24338805  0.97016462     0.12000
H3146       H  0.71067707  0.20567843  0.96531263     0.13900
C3147       C  0.58178840  0.29318778  0.90929891    -0.01600
C3148       C  0.59209269  0.28262790  0.92320982    -0.09600
C3149       C  0.58332156  0.27635092  0.94039412    -0.18500
C3150       C  0.56378485  0.28048641  0.94438269     0.03900
C3151       C  0.55320381  0.29065431  0.92996707     0.18100
C3152       C  0.56219881  0.29678014  0.91264362    -0.19900
C3153       C  0.53374297  0.29493297  0.93303541    -0.21200
C3154       C  0.52440334  0.28900184  0.94989882    -0.19700
C3155       C  0.53430872  0.27874496  0.96419882     0.19500
C3156       C  0.55424040  0.27462886  0.96193410     0.01600
C3157       C  0.56346338  0.26435269  0.97710334    -0.14400
C3158       C  0.55284777  0.25694791  0.99287466    -0.12200
C3159       C  0.53295465  0.25998143  0.99414605     0.01200
C3160       C  0.52403164  0.27162883  0.98025700    -0.24300
H3161       H  0.60729343  0.27967406  0.92108805     0.09200
H3162       H  0.59228056  0.26849834  0.95036558     0.12700
H3163       H  0.55414351  0.30514868  0.90217209     0.11500
H3164       H  0.52560801  0.30274478  0.92220577     0.12600
H3165       H  0.50919791  0.29218903  0.95162353     0.11700
H3166       H  0.57864476  0.26107271  0.97675095     0.08800
H3167       H  0.55991913  0.24769421  0.00329381     0.12000
H3168       H  0.50854353  0.27377874  0.98113008     0.13900
C3169       C  0.77264301  0.47507922  0.77065850    -0.01600
C3170       C  0.77753242  0.46673237  0.78841877    -0.09600
C3171       C  0.76347630  0.45703080  0.79951126    -0.18500
C3172       C  0.74404172  0.45549159  0.79308569     0.03900
C3173       C  0.73960653  0.46285982  0.77443787     0.18100
C3174       C  0.75382632  0.47243442  0.76349459    -0.19900
C3175       C  0.72085636  0.46117666  0.76700564    -0.21200
C3176       C  0.70620742  0.45250088  0.77784969    -0.19700
C3177       C  0.70985618  0.44558475  0.79653255     0.19500
C3178       C  0.72881140  0.44711732  0.80447005     0.01600
C3179       C  0.73160036  0.44053354  0.82359456    -0.14400
C3180       C  0.71646227  0.43220132  0.83409764    -0.12200
C3181       C  0.69793422  0.42998935  0.82602956     0.01200
C3182       C  0.69467322  0.43702468  0.80728573    -0.24300
H3183       H  0.79197537  0.46852078  0.79419027     0.09200
H3184       H  0.76818665  0.45121059  0.81318404     0.12700
H3185       H  0.74999349  0.47854406  0.74954375     0.11500
H3186       H  0.71746056  0.46672325  0.75271930     0.12600
H3187       H  0.69186300  0.45140679  0.77166244     0.11700
H3188       H  0.74531171  0.44162475  0.83088665     0.08800
H3189       H  0.71948179  0.42710120  0.84862940     0.12000
H3190       H  0.68047675  0.43538708  0.80085862     0.13900
C3191       C  0.50385473  0.48055423  0.78823392    -0.01600
C3192       C  0.51743038  0.48751712  0.80156280    -0.09600
C3193       C  0.53302718  0.47630304  0.80727438    -0.18500
C3194       C  0.53574611  0.45772060  0.79948671     0.03900
C3195       C  0.52087200  0.44993513  0.78752706     0.18100
C3196       C  0.50509049  0.46141797  0.78194481    -0.19900
C3197       C  0.52239148  0.43110600  0.78046325    -0.21200
C3198       C  0.53855372  0.42003432  0.78463898    -0.19700
C3199       C  0.55393434  0.42774574  0.79538805     0.19500
C3200       C  0.55286333  0.44680086  0.80276644     0.01600
C3201       C  0.56925890  0.45434285  0.81248587    -0.14400
C3202       C  0.58572245  0.44318271  0.81535718    -0.12200
C3203       C  0.58638629  0.42408065  0.80888838     0.01200
C3204       C  0.57043607  0.41653089  0.79874955    -0.24300
H3205       H  0.51666569  0.50227635  0.80660203     0.09200
H3206       H  0.54302916  0.48280380  0.81732673     0.12700
H3207       H  0.49470972  0.45601664  0.77148420     0.11500
H3208       H  0.51107540  0.42495109  0.77151059     0.12600
H3209       H  0.53925526  0.40549988  0.77897174     0.11700
H3210       H  0.56987722  0.46889110  0.81790095     0.08800
H3211       H  0.59772778  0.44935007  0.82333988     0.12000
H3212       H  0.57077930  0.40178249  0.79359842     0.13900
C3213       C  0.57068881  0.32242061  0.80006034    -0.01600
C3214       C  0.56032566  0.33241227  0.78582424    -0.09600
C3215       C  0.55392322  0.32316529  0.76900353    -0.18500
C3216       C  0.55805470  0.30354749  0.76563289     0.03900
C3217       C  0.56825642  0.29338755  0.78033243     0.18100
C3218       C  0.57421983  0.30278849  0.79740440    -0.19900
C3219       C  0.57284043  0.27398094  0.77774330    -0.21200
C3220       C  0.56720693  0.26428060  0.76106887    -0.19700
C3221       C  0.55684015  0.27372833  0.74653436     0.19500
C3222       C  0.55234471  0.29357455  0.74835334     0.01600
C3223       C  0.54193210  0.30231163  0.73299793    -0.14400
C3224       C  0.53488781  0.29135085  0.71740553    -0.12200
C3225       C  0.53827482  0.27154061  0.71655760     0.01200
C3226       C  0.55001897  0.26308164  0.73067697    -0.24300
H3227       H  0.55758301  0.34767001  0.78749675     0.09200
H3228       H  0.54612999  0.33185319  0.75874392     0.12700
H3229       H  0.58258844  0.29507504  0.80814162     0.11500
H3230       H  0.58073479  0.26619075  0.78877046     0.12600
H3231       H  0.57069764  0.24914911  0.75968658     0.11700
H3232       H  0.53826689  0.31736970  0.73306494     0.08800
H3233       H  0.52555208  0.29807691  0.70683314     0.12000
H3234       H  0.55250328  0.24766944  0.73013352     0.13900
C3235       C  0.05610387  0.50232767  0.25252187    -0.01600
C3236       C  0.06569645  0.48468130  0.25398204    -0.09600
C3237       C  0.08598016  0.48396847  0.25453728    -0.18500
C3238       C  0.09744924  0.50096695  0.25317238     0.03900
C3239       C  0.08764691  0.51871201  0.25062753     0.18100
C3240       C  0.06726992  0.51927717  0.25077652    -0.19900
C3241       C  0.09824269  0.53582080  0.24792691    -0.21200
C3242       C  0.11836625  0.53572695  0.24765843    -0.19700
C3243       C  0.12851971  0.51864327  0.25081895     0.19500
C3244       C  0.11822644  0.50106133  0.25404380     0.01600
C3245       C  0.12920713  0.48449893  0.25839834    -0.14400
C3246       C  0.14946784  0.48533669  0.25923980    -0.12200
C3247       C  0.15962109  0.50254374  0.25535765     0.00400
C3248       C  0.14892960  0.51913267  0.25105763    -0.24300
H3249       H  0.05745848  0.47138543  0.25528372     0.09200
H3250       H  0.09231973  0.46989291  0.25584132     0.12700
H3251       H  0.06003577  0.53300070  0.24933576     0.11500
H3252       H  0.09089806  0.54938702  0.24580499     0.12600
H3253       H  0.12605733  0.54921719  0.24530564     0.11700
H3254       H  0.12248680  0.47076797  0.26160315     0.08800
H3255       H  0.15725253  0.47231761  0.26272112     0.12000
H3256       H  0.15650756  0.53263061  0.24836460     0.13900
C3257       C  0.74476071  0.55475364  0.00292516    -0.01600
C3258       C  0.74634579  0.56538204  0.02009734    -0.09600
C3259       C  0.74601982  0.58555705  0.01981848    -0.18500
C3260       C  0.74447651  0.59593144  0.00217375     0.03900
C3261       C  0.74328225  0.58512020  0.98472693     0.18100
C3262       C  0.74307349  0.56478346  0.98527685    -0.19900
C3263       C  0.74256187  0.59468325  0.96681778    -0.21200
C3264       C  0.74330334  0.61475487  0.96581944    -0.19700
C3265       C  0.74427155  0.62587460  0.98272700     0.19500
C3266       C  0.74442695  0.61659877  0.00117143     0.01600
C3267       C  0.74441540  0.62843493  0.01781377    -0.14400
C3268       C  0.74462199  0.64851550  0.01623416    -0.12200
C3269       C  0.74510378  0.65771263  0.99808813     0.01200
C3270       C  0.74495461  0.64622326  0.98133106    -0.24300
H3271       H  0.74760870  0.55804309  0.03391404     0.09200
H3272       H  0.74735278  0.59261613  0.03365271     0.12700
H3273       H  0.74204150  0.55673495  0.97185488     0.11500
H3274       H  0.74170564  0.58656253  0.95343554     0.12600
H3275       H  0.74299950  0.62163732  0.95169866     0.11700
H3276       H  0.74400263  0.62262032  0.03231103     0.08800
H3277       H  0.74461455  0.65692575  0.02944655     0.12000
H3278       H  0.74496980  0.65311112  0.96720125     0.13900
C3279       C  0.72354252  0.49135790  0.97684736    -0.01600
C3280       C  0.72805738  0.49099567  0.95711462    -0.09600
C3281       C  0.72238970  0.47524415  0.94572038    -0.18500
C3282       C  0.71226498  0.45931316  0.95397698     0.03900
C3283       C  0.70646146  0.46066074  0.97368210     0.18100
C3284       C  0.71205022  0.47659417  0.98479930    -0.19900
C3285       C  0.69591611  0.44569769  0.98248957    -0.21200
C3286       C  0.69127317  0.42910505  0.97222025    -0.19700
C3287       C  0.69737657  0.42692663  0.95300943     0.19500
C3288       C  0.70803130  0.44196488  0.94361818     0.01600
C3289       C  0.71429209  0.43880499  0.92440223    -0.14400
C3290       C  0.70943621  0.42185926  0.91467194    -0.12200
C3291       C  0.69829884  0.40739747  0.92370269     0.01200
C3292       C  0.69265780  0.40986377  0.94304193    -0.24300
H3293       H  0.73712823  0.50219475  0.95081985     0.09200
H3294       H  0.72671264  0.47565704  0.93070356     0.12700
H3295       H  0.70862606  0.47688363  0.00016608     0.11500
H3296       H  0.69139882  0.44674960  0.99751123     0.12600
H3297       H  0.68309498  0.41777424  0.97945120     0.11700
H3298       H  0.72282412  0.44920797  0.91642186     0.08800
H3299       H  0.71397392  0.42032187  0.89970919     0.12000
H3300       H  0.68382390  0.39888956  0.95007443     0.13900
C3301       C  0.96339746  0.26520844  0.00385615    -0.01600
C3302       C  0.97208294  0.27472963  0.01955605    -0.09600
C3303       C  0.96104843  0.28262013  0.03442778    -0.18500
C3304       C  0.94072098  0.28114021  0.03422473     0.03900
C3305       C  0.93185103  0.27294078  0.01747465     0.18100
C3306       C  0.94322389  0.26504861  0.00245100    -0.19900
C3307       C  0.91169524  0.27201117  0.01621917    -0.21200
C3308       C  0.90019193  0.27872745  0.03130556    -0.19700
C3309       C  0.90852481  0.28612886  0.04826087     0.19500
C3310       C  0.92891262  0.28728238  0.05010368     0.01600
C3311       C  0.93652725  0.29413356  0.06792054    -0.14400
C3312       C  0.92436484  0.30025508  0.08293629    -0.12200
C3313       C  0.90427671  0.29986965  0.08068457     0.01200
C3314       C  0.89651903  0.29249016  0.06336107    -0.24300
H3315       H  0.98768430  0.27521757  0.02083087     0.09200
H3316       H  0.96887695  0.28939914  0.04609261     0.12700
H3317       H  0.93639083  0.25765544  0.99041269     0.11500
H3318       H  0.90476557  0.26594305  0.00351925     0.12600
H3319       H  0.88462524  0.27783613  0.02982190     0.11700
H3320       H  0.95182327  0.29493732  0.07070188     0.08800
H3321       H  0.93074128  0.30596242  0.09607853     0.12000
H3322       H  0.88097406  0.29195537  0.06146974     0.13900
C3323       C  0.92387144  0.31331674  0.19078001    -0.01600
C3324       C  0.92799292  0.29364339  0.18955816    -0.09600
C3325       C  0.93578038  0.28377060  0.20539688    -0.18500
C3326       C  0.93968911  0.29329586  0.22314908     0.03900
C3327       C  0.93568747  0.31328648  0.22426665     0.18100
C3328       C  0.92783804  0.32300903  0.20825625    -0.19900
C3329       C  0.93967782  0.32352335  0.24131469    -0.21200
C3330       C  0.94830980  0.31449112  0.25707838    -0.19700
C3331       C  0.95286272  0.29490026  0.25634330     0.19500
C3332       C  0.94798676  0.28388610  0.23959712     0.01600
C3333       C  0.95214289  0.26401993  0.23985053    -0.14400
C3334       C  0.96246518  0.25592335  0.25509355    -0.12200
C3335       C  0.96878823  0.26715475  0.27075001     0.01200
C3336       C  0.96313997  0.28644745  0.27180335    -0.24300
H3337       H  0.92499826  0.28575063  0.17635491     0.09200
H3338       H  0.93870333  0.26871100  0.20321377     0.12700
H3339       H  0.92463006  0.33822012  0.20954555     0.11500
H3340       H  0.93652127  0.33876178  0.24230048     0.12600
H3341       H  0.95175642  0.32297457  0.26980546     0.11700
H3342       H  0.94819285  0.25446318  0.22819886     0.08800
H3343       H  0.96652019  0.24090508  0.25410841     0.12000
H3344       H  0.96805683  0.29523673  0.28383173     0.13900
C3345       C  0.91495420  0.41330040  0.20443937    -0.01600
C3346       C  0.91043127  0.43262284  0.20778457    -0.09600
C3347       C  0.92457700  0.44566624  0.21432436    -0.18500
C3348       C  0.94386540  0.43977788  0.21777183     0.03900
C3349       C  0.94818042  0.42001707  0.21513697     0.18100
C3350       C  0.93384903  0.40709986  0.20854106    -0.19900
C3351       C  0.96686176  0.41328682  0.21882215    -0.21200
C3352       C  0.98142534  0.42578228  0.22512244    -0.19700
C3353       C  0.97781312  0.44542988  0.22766346     0.19500
C3354       C  0.95899420  0.45270434  0.22378123     0.01600
C3355       C  0.95615068  0.47264990  0.22597857    -0.14400
C3356       C  0.97095500  0.48466286  0.23254437    -0.12200
C3357       C  0.98929292  0.47748523  0.23725236     0.01200
C3358       C  0.99278311  0.45782111  0.23432778    -0.24300
H3359       H  0.89606837  0.43785439  0.20470431     0.09200
H3360       H  0.91996708  0.46030280  0.21639504     0.12700
H3361       H  0.93759730  0.39214468  0.20619215     0.11500
H3362       H  0.97023693  0.39819330  0.21686056     0.12600
H3363       H  0.99564135  0.42003130  0.22797292     0.11700
H3364       H  0.94259536  0.47946418  0.22282719     0.08800
H3365       H  0.96782286  0.49983672  0.23425222     0.12000
H3366       H  0.00683921  0.45205257  0.23787630     0.13900
C3367       C  0.76098932  0.22197926  0.03421038    -0.01600
C3368       C  0.77987680  0.22064368  0.04112825    -0.09600
C3369       C  0.78812901  0.23579086  0.05181247    -0.18500
C3370       C  0.77765418  0.25283812  0.05576876     0.03900
C3371       C  0.75784406  0.25311768  0.05056096     0.18100
C3372       C  0.74977911  0.23783956  0.03978656    -0.19900
C3373       C  0.74651692  0.26912108  0.05517172    -0.21200
C3374       C  0.75465652  0.28525290  0.06413484    -0.19700
C3375       C  0.77446622  0.28607016  0.06819056     0.19500
C3376       C  0.78622115  0.26982656  0.06404306     0.01600
C3377       C  0.80622235  0.27162169  0.06746630    -0.14400
C3378       C  0.81420311  0.28865110  0.07476269    -0.12200
C3379       C  0.80267951  0.30463963  0.07926186     0.01200
C3380       C  0.78268255  0.30314629  0.07599366    -0.24300
H3381       H  0.78879032  0.20858536  0.03695999     0.09200
H3382       H  0.80293307  0.23402294  0.05620976     0.12700
H3383       H  0.73507895  0.23891435  0.03450023     0.11500
H3384       H  0.73130696  0.26931030  0.05149099     0.12600
H3385       H  0.74550771  0.29744224  0.06730221     0.11700
H3386       H  0.81619695  0.26022743  0.06426236     0.08800
H3387       H  0.82966904  0.28912633  0.07707972     0.12000
H3388       H  0.77353487  0.31529039  0.07934540     0.13900
C3389       C  0.78659899  0.41520832  0.09701972    -0.01600
C3390       C  0.77933412  0.43244248  0.10467060    -0.09600
C3391       C  0.77475382  0.44794237  0.09263155    -0.18500
C3392       C  0.77745803  0.44681178  0.07237464     0.03900
C3393       C  0.78388550  0.42894875  0.06459994     0.18100
C3394       C  0.78818531  0.41335413  0.07688904    -0.19900
C3395       C  0.78660264  0.42692181  0.04462472    -0.21200
C3396       C  0.78308666  0.44220947  0.03215388    -0.19700
C3397       C  0.77677531  0.45992526  0.03933628     0.19500
C3398       C  0.77400902  0.46266768  0.05953325     0.01600
C3399       C  0.76770469  0.48107165  0.06581986    -0.14400
C3400       C  0.76290120  0.49553957  0.05242402    -0.12200
C3401       C  0.76454196  0.49212594  0.03252334     0.01200
C3402       C  0.77238741  0.47464824  0.02622768    -0.24300
H3403       H  0.77792871  0.43426951  0.12021025     0.09200
H3404       H  0.76956752  0.46075673  0.09965268     0.12700
H3405       H  0.79398984  0.40020745  0.07082825     0.11500
H3406       H  0.79151254  0.41340924  0.03858971     0.12600
H3407       H  0.78515210  0.44009625  0.01671887     0.11700
H3408       H  0.76567865  0.48446694  0.08092439     0.08800
H3409       H  0.75674603  0.50887759  0.05758716     0.12000
H3410       H  0.77384179  0.47199226  0.01079009     0.13900
C3411       C  0.72631868  0.47483726  0.24420138    -0.01600
C3412       C  0.72284827  0.46676473  0.22599604    -0.09600
C3413       C  0.73696290  0.45565910  0.21683329    -0.18500
C3414       C  0.75509050  0.45222021  0.22570478     0.03900
C3415       C  0.75789660  0.45913278  0.24485153     0.18100
C3416       C  0.74364134  0.47042263  0.25381328    -0.19900
C3417       C  0.77519986  0.45535220  0.25462565    -0.21200
C3418       C  0.79008370  0.44538175  0.24552991    -0.19700
C3419       C  0.78823851  0.43927337  0.22626851     0.19500
C3420       C  0.77065271  0.44258978  0.21613867     0.01600
C3421       C  0.76961312  0.43671215  0.19661961    -0.14400
C3422       C  0.78523746  0.42800973  0.18752232    -0.12200
C3423       C  0.80262936  0.42460929  0.19738311     0.01200
C3424       C  0.80395194  0.43018184  0.21692839    -0.24300
H3425       H  0.70964757  0.47000271  0.21829468     0.09200
H3426       H  0.73337274  0.45030995  0.20263285     0.12700
H3427       H  0.74637135  0.47650602  0.26803269     0.11500
H3428       H  0.77734733  0.46038256  0.26933861     0.12600
H3429       H  0.80332180  0.44286953  0.25346170     0.11700
H3430       H  0.75701306  0.43893134  0.18779426     0.08800
H3431       H  0.78354696  0.42390464  0.17247425     0.12000
H3432       H  0.81722845  0.42766686  0.22480017     0.13900
C3433       C  0.92478394  0.69729498  0.31213055    -0.01600
C3434       C  0.92503773  0.71742323  0.31065697    -0.09600
C3435       C  0.93198933  0.72654951  0.29382327    -0.18500
C3436       C  0.93887282  0.71573495  0.27783135     0.03900
C3437       C  0.93894476  0.69535537  0.27963387     0.18100
C3438       C  0.93205495  0.68645126  0.29657657    -0.19900
C3439       C  0.94582899  0.68386808  0.26449445    -0.21200
C3440       C  0.95311248  0.69220555  0.24763783    -0.19700
C3441       C  0.95356659  0.71223677  0.24542877     0.19500
C3442       C  0.94608073  0.72431046  0.26030990     0.01600
C3443       C  0.94672887  0.74444156  0.25720185    -0.14400
C3444       C  0.95603609  0.75221402  0.24094919    -0.12200
C3445       C  0.96451366  0.74026350  0.22705479     0.01200
C3446       C  0.96249589  0.72029603  0.22890255    -0.24300
H3447       H  0.91943900  0.72614965  0.32235569     0.09200
H3448       H  0.93168551  0.74207256  0.29373220     0.12700
H3449       H  0.93204996  0.67084026  0.29743519     0.11500
H3450       H  0.94582284  0.66829311  0.26580566     0.12600
H3451       H  0.95873522  0.68291909  0.23638023     0.11700
H3452       H  0.94096482  0.75457539  0.26746446     0.08800
H3453       H  0.95777165  0.76772256  0.23986483     0.12000
H3454       H  0.96947806  0.71103513  0.21840481     0.13900
C3455       C  0.90838455  0.70982289  0.42229940    -0.01600
C3456       C  0.90131438  0.71678823  0.44002351    -0.09600
C3457       C  0.91389326  0.72310178  0.45454366    -0.18500
C3458       C  0.93411228  0.72236541  0.45190513     0.03900
C3459       C  0.94114400  0.71633463  0.43346273     0.18100
C3460       C  0.92830025  0.71034332  0.41886420    -0.19900
C3461       C  0.96100335  0.71563925  0.42989087    -0.21200
C3462       C  0.97409594  0.72060486  0.44427165    -0.19700
C3463       C  0.96766758  0.72623235  0.46264586     0.19500
C3464       C  0.94762358  0.72713253  0.46688420     0.01600
C3465       C  0.94212665  0.73251097  0.48596998    -0.14400
C3466       C  0.95602360  0.73744256  0.49996167    -0.12200
C3467       C  0.97570357  0.73720681  0.49531245     0.01200
C3468       C  0.98132006  0.73118134  0.47673947    -0.24300
H3469       H  0.88592808  0.71672254  0.44295970     0.09200
H3470       H  0.90737964  0.72802723  0.46782470     0.12700
H3471       H  0.93390966  0.70491217  0.40525271     0.11500
H3472       H  0.96646591  0.71108432  0.41590405     0.12600
H3473       H  0.98940426  0.71992325  0.44102269     0.11700
H3474       H  0.92722659  0.73320051  0.49045322     0.08800
H3475       H  0.95134307  0.74211794  0.51417794     0.12000
H3476       H  0.99655266  0.73068126  0.47305260     0.13900
C3477       C  0.91970896  0.59598992  0.30087955    -0.01600
C3478       C  0.91841756  0.57642589  0.30564844    -0.09600
C3479       C  0.93370534  0.56407149  0.30164406    -0.18500
C3480       C  0.95072130  0.57091403  0.29238905     0.03900
C3481       C  0.95128945  0.59040655  0.28609654     0.18100
C3482       C  0.93605631  0.60284519  0.29078798    -0.19900
C3483       C  0.96709780  0.59731828  0.27529512    -0.21200
C3484       C  0.98212738  0.58507523  0.27017592    -0.19700
C3485       C  0.98220347  0.56590913  0.27660777     0.19500
C3486       C  0.96690819  0.55890907  0.28861593     0.01600
C3487       C  0.96836767  0.54009401  0.29622545    -0.14400
C3488       C  0.98304887  0.52792742  0.29018689    -0.12200
C3489       C  0.99682796  0.53410022  0.27658484     0.01200
C3490       C  0.99696321  0.55338795  0.27050632    -0.24300
H3491       H  0.90598670  0.57085641  0.31351735     0.09200
H3492       H  0.93175093  0.54920565  0.30586173     0.12700
H3493       H  0.93706744  0.61798857  0.28692967     0.11500
H3494       H  0.96759470  0.61215440  0.27034494     0.12600
H3495       H  0.99378646  0.59064444  0.26119201     0.11700
H3496       H  0.95811951  0.53424555  0.30652473     0.08800
H3497       H  0.98287637  0.51309685  0.29517573     0.12000
H3498       H  0.00760512  0.55821281  0.25994892     0.13900
C3499       C  0.76137444  0.50457239  0.47268394    -0.01600
C3500       C  0.76333561  0.50090299  0.45286012    -0.09600
C3501       C  0.77136339  0.51499435  0.44046107    -0.18500
C3502       C  0.77741044  0.53328866  0.44762712     0.03900
C3503       C  0.77617375  0.53639175  0.46791085     0.18100
C3504       C  0.76861921  0.52202721  0.48010898    -0.19900
C3505       C  0.78169515  0.55412357  0.47593217    -0.21200
C3506       C  0.78819030  0.56912771  0.46417789    -0.19700
C3507       C  0.78949969  0.56675273  0.44410274     0.19500
C3508       C  0.78426625  0.54875320  0.43552246     0.01600
C3509       C  0.78605496  0.54711065  0.41521909    -0.14400
C3510       C  0.79308374  0.56246290  0.40404464    -0.12200
C3511       C  0.79850997  0.58010493  0.41255790     0.01200
C3512       C  0.79635423  0.58221781  0.43261291    -0.24300
H3513       H  0.75766764  0.48763155  0.44678252     0.09200
H3514       H  0.77198789  0.51142201  0.42527860     0.12700
H3515       H  0.76728513  0.52493295  0.49550926     0.11500
H3516       H  0.78070002  0.55651580  0.49142966     0.12600
H3517       H  0.79220836  0.58270859  0.47085479     0.11700
H3518       H  0.78241065  0.53405736  0.40756495     0.08800
H3519       H  0.79461030  0.56033054  0.38855682     0.12000
H3520       H  0.80074966  0.59563576  0.43940037     0.13900
C3521       C  0.75952655  0.77444658  0.46692673    -0.01600
C3522       C  0.74863294  0.75949568  0.45858934    -0.09600
C3523       C  0.75754017  0.74327293  0.45077507    -0.18500
C3524       C  0.77782306  0.74128207  0.45136708     0.03900
C3525       C  0.78889592  0.75709266  0.45865849     0.18100
C3526       C  0.77969736  0.77350345  0.46624353    -0.19900
C3527       C  0.80905662  0.75603503  0.45920469    -0.21200
C3528       C  0.81848096  0.73959985  0.45283123    -0.19700
C3529       C  0.80799356  0.72364973  0.44600094     0.19500
C3530       C  0.78750367  0.72412075  0.44531757     0.01600
C3531       C  0.77768033  0.70729697  0.43885352    -0.14400
C3532       C  0.78784044  0.69109320  0.43248740    -0.12200
C3533       C  0.80807964  0.69105661  0.43236819     0.01200
C3534       C  0.81797961  0.70730720  0.43959796    -0.24300
H3535       H  0.73299466  0.75978309  0.45932408     0.09200
H3536       H  0.74812418  0.73224616  0.44501520     0.12700
H3537       H  0.78818795  0.78475717  0.47314955     0.11500
H3538       H  0.81761233  0.76797307  0.46472142     0.12600
H3539       H  0.83412256  0.73930829  0.45339675     0.11700
H3540       H  0.76214817  0.70627976  0.43836665     0.08800
H3541       H  0.77979396  0.67880395  0.42701505     0.12000
H3542       H  0.83364583  0.70749825  0.43978296     0.13900
C3543       C  0.80977755  0.57788243  0.31304570    -0.01600
C3544       C  0.80695936  0.57909679  0.29296106    -0.09600
C3545       C  0.78975589  0.57229525  0.28453098    -0.18500
C3546       C  0.77477094  0.56402684  0.29601880     0.03900
C3547       C  0.77799775  0.56241859  0.31628252     0.18100
C3548       C  0.79523681  0.56926711  0.32448183    -0.19900
C3549       C  0.76400467  0.55397400  0.32837767    -0.21200
C3550       C  0.74700148  0.54648496  0.32072495    -0.19700
C3551       C  0.74342095  0.54749476  0.30081086     0.19500
C3552       C  0.75696404  0.55677964  0.28819897     0.01600
C3553       C  0.75231607  0.55775405  0.26826679    -0.14400
C3554       C  0.73603812  0.54812975  0.26098751    -0.12200
C3555       C  0.72366917  0.53770528  0.27332179     0.01200
C3556       C  0.72692879  0.53819350  0.29329876    -0.24300
H3557       H  0.81783916  0.58580519  0.28378759     0.09200
H3558       H  0.78857684  0.57374311  0.26901487     0.12700
H3559       H  0.79716376  0.56812810  0.34004525     0.11500
H3560       H  0.76639228  0.55281344  0.34386641     0.12600
H3561       H  0.73672654  0.53953558  0.33042405     0.11700
H3562       H  0.76145125  0.56504832  0.25784798     0.08800
H3563       H  0.73390199  0.54759657  0.24543508     0.12000
H3564       H  0.71762525  0.52975205  0.30281827     0.13900
C3565       C  0.59087307  0.58428151  0.71272164    -0.01600
C3566       C  0.58852502  0.56463495  0.70870833    -0.09600
C3567       C  0.57205885  0.55460092  0.71493910    -0.18500
C3568       C  0.55737054  0.56392260  0.72559101     0.03900
C3569       C  0.56056728  0.58339273  0.73109316     0.18100
C3570       C  0.57705612  0.59344444  0.72441518    -0.19900
C3571       C  0.54714699  0.59273617  0.74298202    -0.21200
C3572       C  0.53069720  0.58303089  0.74969833    -0.19700
C3573       C  0.52681556  0.56402410  0.74398627     0.19500
C3574       C  0.53980909  0.55448567  0.73126402     0.01600
C3575       C  0.53465597  0.53588562  0.72470297    -0.14400
C3576       C  0.51830047  0.52644741  0.73190998    -0.12200
C3577       C  0.50643292  0.53517788  0.74570921     0.01200
C3578       C  0.51037638  0.55420902  0.75132734    -0.24300
H3579       H  0.59899912  0.55715282  0.69986320     0.09200
H3580       H  0.57122972  0.53955827  0.71117661     0.12700
H3581       H  0.57885862  0.60858737  0.72789372     0.11500
H3582       H  0.54953874  0.60755854  0.74735972     0.12600
H3583       H  0.52086064  0.59049696  0.75927685     0.11700
H3584       H  0.54312703  0.52814071  0.71422639     0.08800
H3585       H  0.51550330  0.51169194  0.72751683     0.12000
H3586       H  0.50134969  0.56092439  0.76220744     0.13900
C3587       C  0.67418858  0.69898587  0.57387906    -0.01600
C3588       C  0.69312664  0.69590346  0.56764373    -0.09600
C3589       C  0.70386535  0.71089046  0.55912567    -0.18500
C3590       C  0.69588916  0.72949045  0.55656845     0.03900
C3591       C  0.67639040  0.73225333  0.56213185     0.18100
C3592       C  0.66585422  0.71715151  0.57072861    -0.19900
C3593       C  0.66748201  0.75006056  0.55907448    -0.21200
C3594       C  0.67737568  0.76507398  0.54988824    -0.19700
C3595       C  0.69660105  0.76282846  0.54409533     0.19500
C3596       C  0.70633515  0.74525137  0.54812227     0.01600
C3597       C  0.72605602  0.74408726  0.54320981    -0.14400
C3598       C  0.73508520  0.75878066  0.53276010    -0.12200
C3599       C  0.72492682  0.77518626  0.52702403     0.01200
C3600       C  0.70595635  0.77765865  0.53353466    -0.24300
H3601       H  0.69987802  0.68206165  0.56990105     0.09200
H3602       H  0.71832823  0.70743042  0.55460324     0.12700
H3603       H  0.65108007  0.71969761  0.57525309     0.11500
H3604       H  0.65259414  0.75223787  0.56339300     0.12600
H3605       H  0.66989003  0.77844995  0.54713307     0.11700
H3606       H  0.73477350  0.73181029  0.54680264     0.08800
H3607       H  0.74992200  0.75682335  0.52816065     0.12000
H3608       H  0.69807179  0.79038246  0.52918376     0.13900
C3609       C  0.69260539  0.58834951  0.58114929    -0.01600
C3610       C  0.70030796  0.57190750  0.59008789    -0.09600
C3611       C  0.70448840  0.55537512  0.57941950    -0.18500
C3612       C  0.70110867  0.55464460  0.55926318     0.03900
C3613       C  0.69443254  0.57171874  0.55002359     0.18100
C3614       C  0.69020055  0.58828213  0.56096886    -0.19900
C3615       C  0.69177084  0.57208160  0.52992754    -0.21200
C3616       C  0.69574514  0.55593734  0.51877669    -0.19700
C3617       C  0.70209250  0.53888509  0.52747990     0.19500
C3618       C  0.70445034  0.53775204  0.54788165     0.01600
C3619       C  0.71026152  0.51982285  0.55585714    -0.14400
C3620       C  0.71533009  0.50433551  0.54385888    -0.12200
C3621       C  0.71449891  0.50625715  0.52370141     0.01200
C3622       C  0.70694522  0.52321536  0.51573170    -0.24300
H3623       H  0.70261551  0.57155062  0.60561506     0.09200
H3624       H  0.71025973  0.54335490  0.58737652     0.12700
H3625       H  0.68438811  0.60088992  0.55382172     0.11500
H3626       H  0.68676974  0.58501513  0.52274703     0.12600
H3627       H  0.69392427  0.55682693  0.50319219     0.11700
H3628       H  0.71160529  0.51755291  0.57125932     0.08800
H3629       H  0.72120206  0.49140562  0.55030033     0.12000
H3630       H  0.70616063  0.52471074  0.50008254     0.13900
C3631       C  0.69643006  0.57039259  0.68148205    -0.01600
C3632       C  0.71054427  0.56063278  0.67080629    -0.09600
C3633       C  0.72667247  0.55281050  0.67988742    -0.18500
C3634       C  0.72940092  0.55475402  0.70008041     0.03900
C3635       C  0.71448542  0.56371400  0.71100925     0.18100
C3636       C  0.69816557  0.57134105  0.70167434    -0.19900
C3637       C  0.71615503  0.56537837  0.73114722    -0.21200
C3638       C  0.73219293  0.55814537  0.74072193    -0.19700
C3639       C  0.74716812  0.54942178  0.73036417     0.19500
C3640       C  0.74625964  0.54797875  0.70984892     0.01600
C3641       C  0.76219609  0.53962900  0.70011365    -0.14400
C3642       C  0.77750385  0.53150700  0.71048135    -0.12200
C3643       C  0.77746359  0.53165027  0.73074118     0.01200
C3644       C  0.76265334  0.54131250  0.74052211    -0.24300
H3645       H  0.70938623  0.55954406  0.65517619     0.09200
H3646       H  0.73687773  0.54557281  0.67067053     0.12700
H3647       H  0.68734821  0.57893806  0.71001623     0.11500
H3648       H  0.70489157  0.57217684  0.73958397     0.12600
H3649       H  0.73285577  0.55931922  0.75637710     0.11700
H3650       H  0.76294241  0.53859042  0.68454075     0.08800
H3651       H  0.78859006  0.52376493  0.70268706     0.12000
H3652       H  0.76245364  0.54118736  0.75625842     0.13900
C3653       C  0.57828076  0.70244804  0.59660583    -0.01600
C3654       C  0.58813812  0.71197392  0.58145144    -0.09600
C3655       C  0.57871593  0.71711274  0.56432656    -0.18500
C3656       C  0.55893996  0.71280558  0.56161379     0.03900
C3657       C  0.54876161  0.70395132  0.57734472     0.18100
C3658       C  0.55842416  0.69895472  0.59459955    -0.19900
C3659       C  0.52905217  0.69972913  0.57561374    -0.21200
C3660       C  0.51918708  0.70412922  0.55867699    -0.19700
C3661       C  0.52879174  0.71272102  0.54293623     0.19500
C3662       C  0.54884530  0.71703517  0.54397692     0.01600
C3663       C  0.55771333  0.72560053  0.52739974    -0.14400
C3664       C  0.54677000  0.73089069  0.51110702    -0.12200
C3665       C  0.52683582  0.72749177  0.51076917     0.01200
C3666       C  0.51816995  0.71775898  0.52643997    -0.24300
H3667       H  0.60348986  0.71495328  0.58255098     0.09200
H3668       H  0.58737744  0.72416652  0.55335367     0.12700
H3669       H  0.55065033  0.69147651  0.60608115     0.11500
H3670       H  0.52117470  0.69301142  0.58748028     0.12600
H3671       H  0.50386006  0.70087695  0.55792682     0.11700
H3672       H  0.57293206  0.72898752  0.52687118     0.08800
H3673       H  0.55367508  0.73874352  0.49934924     0.12000
H3674       H  0.50266220  0.71529215  0.52631764     0.13900
C3675       C  0.57249741  0.68372184  0.70867087    -0.01600
C3676       C  0.56850346  0.67578803  0.72702928    -0.09600
C3677       C  0.55896956  0.68636942  0.74128074    -0.18500
C3678       C  0.55310775  0.70549364  0.73775754     0.03900
C3679       C  0.55705273  0.71349675  0.71908829     0.18100
C3680       C  0.56659996  0.70260823  0.70479096    -0.19900
C3681       C  0.55139736  0.73232628  0.71477413    -0.21200
C3682       C  0.54143628  0.74320510  0.72836355    -0.19700
C3683       C  0.53702990  0.73561843  0.74670622     0.19500
C3684       C  0.54316522  0.71683379  0.75190688     0.01600
C3685       C  0.53876661  0.71019641  0.77092150    -0.14400
C3686       C  0.52773130  0.72130011  0.78372540    -0.12200
C3687       C  0.52071981  0.73924889  0.77797230     0.01200
C3688       C  0.52593244  0.74652144  0.75965620    -0.24300
H3689       H  0.57277440  0.66119472  0.73046668     0.09200
H3690       H  0.55634040  0.67912895  0.75489034     0.12700
H3691       H  0.56969990  0.70896414  0.69072785     0.11500
H3692       H  0.55444145  0.73859590  0.70066671     0.12600
H3693       H  0.53692203  0.75759967  0.72439840     0.11700
H3694       H  0.54328862  0.69632316  0.77618443     0.08800
H3695       H  0.52381508  0.71538313  0.79776251     0.12000
H3696       H  0.52068175  0.76052336  0.75517470     0.13900
loop_ 
_geom_bond_atom_site_label_1 
_geom_bond_atom_site_label_2 
_geom_bond_distance 
_geom_bond_site_symmetry_2 
_ccdc_geom_bond_type 
O1           Mg3   2.121       .  S
O1           Mg9   2.148       .  S
O1           C36   1.239       .  S
C2           O15   1.239       .  S
C2           O39   1.273       .  A
C2           H41   1.081       .  S
Mg3          O32   2.130       .  S
Mg3          O47   2.281       .  S
Mg3          O43   2.230       .  S
Mg3          O14   2.305       .  S
O4          Mg46   2.150       .  S
O4          Mg29   2.109       .  S
O4           C25   1.237       .  S
O5           C36   1.272       .  A
O5          Mg29   2.297       .  S
C6            O8   1.277       .  A
C6           O20   1.272       .  A
C6         C3565   1.483       .  S
O7           C35   1.273       .  A
O7           Mg9   2.312       .  S
O8          Mg40   2.289       .  S
Mg9          O15   2.141       .  S
Mg9          O23   2.304       .  S
Mg9          O11   2.362       .  S
C10          O48   1.273       .  A
C10          O16   1.284       .  A
C10        C3675   1.488       .  S
O11          C18   1.282       .  A
H12          C25   1.081       .  S
C13          O27   1.238       .  S
C13          O28   1.272       .  A
C13          H38   1.081       .  S
O14          C37   1.273       .  A
O15         Mg29   2.133       .  S
O16         Mg46   2.363       .  S
C17          O30   1.279       .  A
C17          O22   1.269       .  A
C17        C3653   1.489       .  S
C18          O45   1.265       .  A
C18        C3587   1.481       .  S
Mg19         O26   2.142       .  S
Mg19         O27   2.141       .  S
Mg19         O20   2.280       .  S
Mg19         O21   2.286       .  S
Mg19         O48   2.245       .  S
O21          C25   1.270       .  A
O22         Mg29   2.255       .  S
O23          C42   1.277       .  A
O24          C44   1.281       .  A
O24         Mg40   2.355       .  S
O26         Mg40   2.146       .  S
O26          C37   1.239       .  S
O27         Mg46   2.135       .  S
O28         Mg40   2.302       .  S
Mg29         O45   2.198       .  S
O30         Mg46   2.323       .  S
H31          C36   1.081       .  S
O32         Mg40   2.148       .  S
O32          C35   1.238       .  S
H33          C35   1.081       .  S
H34          C37   1.081       .  S
O39         Mg46   2.304       .  S
C42          O47   1.272       .  A
C42        C3609   1.488       .  S
O43          C44   1.268       .  A
C44        C3631   1.479       .  S
O49         Mg51   2.123       .  S
O49         Mg57   2.151       .  S
O49          C84   1.238       .  S
C50          O63   1.239       .  S
C50          O87   1.274       .  A
C50          H89   1.081       .  S
Mg51         O80   2.133       .  S
Mg51         O95   2.247       .  S
Mg51         O91   2.241       .  S
Mg51         O62   2.291       .  S
O52         Mg94   2.147       .  S
O52         Mg77   2.130       .  S
O52          C73   1.238       .  S
O53          C84   1.272       .  A
O53         Mg77   2.299       .  S
C54          O56   1.276       .  A
C54          O68   1.270       .  A
C54        C3543   1.488       .  S
O55          C83   1.272       .  A
O55         Mg57   2.301       .  S
O56         Mg88   2.311       .  S
Mg57         O63   2.152       .  S
Mg57         O71   2.318       .  S
Mg57         O59   2.348       .  S
C58          O96   1.266       .  A
C58          O64   1.284       .  A
C58        C3511   1.487       .  S
O59          C66   1.281       .  A
H60          C73   1.081       .  S
C61          O75   1.241       .  S
C61          O76   1.275       .  A
C61          H86   1.081       .  S
O62          C85   1.270       .  A
O63         Mg77   2.135       .  S
O64         Mg94   2.382       .  S
C65          O78   1.278       .  A
C65          O70   1.272       .  A
C65        C3533   1.490       .  S
C66          O93   1.270       .  A
C66        C3455   1.480       .  S
Mg67         O74   2.102       .  S
Mg67         O75   2.131       .  S
Mg67         O68   2.259       .  S
Mg67         O69   2.299       .  S
Mg67         O96   2.211       .  S
O69          C73   1.272       .  A
O70         Mg77   2.277       .  S
O71          C90   1.278       .  A
O72          C92   1.281       .  A
O72         Mg88   2.345       .  S
O74         Mg88   2.141       .  S
O74          C85   1.238       .  S
O75         Mg94   2.144       .  S
O76         Mg88   2.310       .  S
Mg77         O93   2.237       .  S
O78         Mg94   2.310       .  S
H79          C84   1.081       .  S
O80         Mg88   2.131       .  S
O80          C83   1.239       .  S
H81          C83   1.081       .  S
H82          C85   1.081       .  S
O87         Mg94   2.314       .  S
C90          O95   1.269       .  A
C90        C3433   1.487       .  S
O91          C92   1.269       .  A
C92        C3477   1.476       .  S
O97         Mg99   2.127       .  S
O97        Mg105   2.140       .  S
O97         C132   1.238       .  S
C98         O111   1.240       .  S
C98         O135   1.274       .  A
C98         H137   1.081       .  S
Mg99        O128   2.133       .  S
Mg99        O143   2.273       .  S
Mg99        O139   2.231       .  S
Mg99        O110   2.299       .  S
O100       Mg142   2.140       .  S
O100       Mg125   2.113       .  S
O100        C121   1.239       .  S
O101        C132   1.272       .  A
O101       Mg125   2.297       .  S
C102        O104   1.278       .  A
C102        O116   1.272       .  A
C102       C3423   1.495       .  S
O103        C131   1.275       .  A
O103       Mg105   2.312       .  S
O104       Mg136   2.328       .  S
Mg105       O111   2.137       .  S
Mg105       O119   2.300       .  S
Mg105       O107   2.369       .  S
C106        O144   1.268       .  A
C106        O112   1.282       .  A
C106       C3389   1.482       .  S
O107        C114   1.283       .  A
H108        C121   1.081       .  S
C109        O123   1.240       .  S
C109        O124   1.275       .  A
C109        H134   1.081       .  S
O110        C133   1.272       .  A
O111       Mg125   2.129       .  S
O112       Mg142   2.362       .  S
C113        O126   1.280       .  A
C113        O118   1.272       .  A
C113       C3379   1.498       .  S
C114        O141   1.270       .  A
C114       C3313   1.487       .  S
Mg115       O122   2.125       .  S
Mg115       O123   2.130       .  S
Mg115       O116   2.275       .  S
Mg115       O117   2.302       .  S
Mg115       O144   2.227       .  S
O117        C121   1.272       .  A
O118       Mg125   2.276       .  S
O119        C138   1.277       .  A
O120        C140   1.286       .  A
O120       Mg136   2.386       .  S
O122       Mg136   2.149       .  S
O122        C133   1.238       .  S
O123       Mg142   2.171       .  S
O124       Mg136   2.322       .  S
Mg125       O141   2.233       .  S
O126       Mg142   2.342       .  S
H127        C132   1.081       .  S
O128       Mg136   2.142       .  S
O128        C131   1.241       .  S
H129        C131   1.081       .  S
H130        C133   1.081       .  S
O135       Mg142   2.305       .  S
C138        O143   1.271       .  A
C138       C3323   1.488       .  S
O139        C140   1.269       .  A
C140       C3345   1.492       .  S
C145       C3257   1.490       .  S
C145        N146   1.373       .  A
C145        N150   1.369   1_554  A
N146        C147   1.364       .  A
C147       C3401   1.478       .  S
C147        N148   1.346       .  A
N148        C149   1.345   1_554  A
C149       C3279   1.468       .  S
C149        N150   1.359       .  A
C151       C3235   1.494       .  S
C151        N152   1.376       .  A
C151        N156   1.369       .  A
N152        C153   1.369       .  A
C153       C3357   1.492   1_455  S
C153        N154   1.349   1_455  A
N154        C155   1.346   1_655  A
C155       C3489   1.471   1_455  S
C155        N156   1.358       .  A
O157       Mg159   2.101       .  S
O157       Mg165   2.146       .  S
O157        C192   1.237       .  S
C158        O171   1.239       .  S
C158        O195   1.272       .  A
C158        H197   1.081       .  S
Mg159       O188   2.127       .  S
Mg159       O203   2.253       .  S
Mg159       O199   2.206       .  S
Mg159       O170   2.297       .  S
O160       Mg202   2.149       .  S
O160       Mg185   2.133       .  S
O160        C181   1.239       .  S
O161        C192   1.269       .  A
O161       Mg185   2.282       .  S
C162        O164   1.276       .  A
C162        O176   1.273       .  A
C162       C3203   1.485       .  S
O163        C191   1.272       .  A
O163       Mg165   2.299       .  S
O164       Mg196   2.288       .  S
Mg165       O171   2.128       .  S
Mg165       O179   2.293       .  S
Mg165       O167   2.343       .  S
C166        O204   1.268       .  A
C166        O172   1.283       .  A
C166       C3213   1.480       .  S
O167        C174   1.280       .  A
H168        C181   1.081       .  S
C169        O183   1.239       .  S
C169        O184   1.274       .  A
C169        H194   1.081       .  S
O170        C193   1.273       .  A
O171       Mg185   2.138       .  S
O172       Mg202   2.368       .  S
C173        O186   1.279       .  A
C173        O178   1.269       .  A
C173       C3147   1.485       .  S
C174        O201   1.271       .  A
C174       C3125   1.483       .  S
Mg175       O182   2.126       .  S
Mg175       O183   2.124       .  S
Mg175       O176   2.291       .  S
Mg175       O177   2.309       .  S
Mg175       O204   2.233       .  S
O177        C181   1.274       .  A
O178       Mg185   2.252       .  S
O179        C198   1.276       .  A
O180        C200   1.283       .  A
O180       Mg196   2.371       .  S
O182       Mg196   2.143       .  S
O182        C193   1.239       .  S
O183       Mg202   2.147       .  S
O184       Mg196   2.315       .  S
Mg185       O201   2.235       .  S
O186       Mg202   2.313       .  S
H187        C192   1.081       .  S
O188       Mg196   2.127       .  S
O188        C191   1.239       .  S
H189        C191   1.081       .  S
H190        C193   1.081       .  S
O195       Mg202   2.302       .  S
C198        O203   1.269       .  A
C198       C3291   1.478       .  S
O199        C200   1.266       .  A
C200       C3181   1.486       .  S
O205       Mg207   2.130       .  S
O205       Mg213   2.155       .  S
O205        C240   1.239       .  S
C206        O219   1.239       .  S
C206        O243   1.273       .  A
C206        H245   1.081       .  S
Mg207       O236   2.136       .  S
Mg207       O251   2.263       .  S
Mg207       O247   2.234       .  S
Mg207       O218   2.291       .  S
O208       Mg250   2.157       .  S
O208       Mg233   2.133       .  S
O208        C229   1.240       .  S
O209        C240   1.272       .  A
O209       Mg233   2.298       .  S
C210        O212   1.279       .  A
C210        O224   1.272       .  A
C210       C3093   1.487       .  S
O211        C239   1.272       .  A
O211       Mg213   2.302       .  S
O212       Mg244   2.309       .  S
Mg213       O219   2.140       .  S
Mg213       O227   2.311       .  S
Mg213       O215   2.357       .  S
C214        O252   1.267       .  A
C214        O220   1.284       .  A
C214       C3115   1.485       .  S
O215        C222   1.283       .  A
H216        C229   1.081       .  S
C217        O231   1.240       .  S
C217        O232   1.274       .  A
C217        H242   1.081       .  S
O218        C241   1.270       .  A
O219       Mg233   2.135       .  S
O220       Mg250   2.378       .  S
C221        O234   1.279       .  A
C221        O226   1.271       .  A
C221       C3037   1.486       .  S
C222        O249   1.270       .  A
C222       C3015   1.488       .  S
Mg223       O230   2.110       .  S
Mg223       O231   2.136       .  S
Mg223       O224   2.276       .  S
Mg223       O225   2.295       .  S
Mg223       O252   2.213       .  S
O225        C229   1.272       .  A
O226       Mg233   2.267       .  S
O227        C246   1.278       .  A
O228        C248   1.284       .  A
O228       Mg244   2.369       .  S
O230       Mg244   2.136       .  S
O230        C241   1.237       .  S
O231       Mg250   2.134       .  S
O232       Mg244   2.306       .  S
Mg233       O249   2.242       .  S
O234       Mg250   2.305       .  S
H235        C240   1.081       .  S
O236       Mg244   2.139       .  S
O236        C239   1.239       .  S
H237        C239   1.081       .  S
H238        C241   1.081       .  S
O243       Mg250   2.310       .  S
C246        O251   1.271       .  A
C246       C3005   1.484       .  S
O247        C248   1.270       .  A
C248       C3059   1.481       .  S
C253       C2983   1.492       .  S
C253        N254   1.371       .  A
C253        N258   1.371       .  A
N254        C255   1.362       .  A
C255       C3049   1.472   1_554  S
C255        N256   1.347   1_554  A
N256        C257   1.347   1_556  A
C257       C3159   1.472   1_554  S
C257        N258   1.362       .  A
C259       C2961   1.494       .  S
C259        N260   1.371       .  A
C259        N264   1.373       .  A
N260        C261   1.361       .  A
C261       C3225   1.474       .  S
C261        N262   1.345       .  A
N262        C263   1.348       .  A
C263       C3103   1.490       .  S
C263        N264   1.366       .  A
C265       C2905   1.495       .  S
C265        N266   1.372       .  A
C265        N270   1.372   1_565  A
N266        C267   1.363       .  A
C267       C2927   1.476       .  S
C267        N268   1.346   1_565  A
N268        C269   1.344       .  A
C269       C3081   1.471       .  S
C269        N270   1.362       .  A
C271       C2851   1.494       .  S
C271        N272   1.372   1_545  A
C271        N276   1.369       .  A
N272        C273   1.365   1_655  A
C273       C2861   1.481       .  S
C273        N274   1.349   1_565  A
N274        C275   1.346       .  A
C275       C2883   1.468       .  S
C275        N276   1.361   1_455  A
C277       C2795   1.487       .  S
C277        N278   1.370   1_556  A
C277        N282   1.372       .  A
N278        C279   1.361       .  A
C279       C2829   1.473       .  S
C279        N280   1.347   1_554  A
N280        C281   1.349       .  A
C281       C3027   1.483       .  S
C281        N282   1.365       .  A
C283       C2751   1.503       .  S
C283        N284   1.372       .  A
C283        N288   1.376   1_556  A
N284        C285   1.361       .  A
C285       C2993   1.469   1_565  S
C285        N286   1.342   1_565  A
N286        C287   1.347   1_546  A
C287       C2773   1.483   1_565  S
C287        N288   1.369       .  A
C289       C2685   1.492       .  S
C289        N290   1.370       .  A
C289        N294   1.370   1_565  A
N290        C291   1.363       .  A
C291       C2719   1.480       .  S
C291        N292   1.349       .  A
N292        C293   1.350   1_565  A
C293       C2729   1.483       .  S
C293        N294   1.363       .  A
C295       C2641   1.499       .  S
C295        N296   1.372   1_655  A
C295        N300   1.374       .  A
N296        C297   1.361       .  A
C297       C2663   1.476   1_556  S
C297        N298   1.346   1_456  A
N298        C299   1.348   1_554  A
C299       C3301   1.481   1_556  S
C299        N300   1.366       .  A
C301       C2609   1.497       .  S
C301        N302   1.372   1_455  A
C301        N306   1.373       .  A
N302        C303   1.361       .  A
C303       C3335   1.478       .  S
C303        N304   1.347       .  A
N304        C305   1.348   1_655  A
C305       C2631   1.484       .  S
C305        N306   1.366       .  A
O307       Mg309   2.129       .  S
O307       Mg315   2.150       .  S
O307        C342   1.238       .  S
C308        O321   1.239       .  S
C308        O345   1.273       .  A
C308        H347   1.081       .  S
Mg309       O338   2.133       .  S
Mg309       O353   2.273       .  S
Mg309       O349   2.236       .  S
Mg309       O320   2.299       .  S
O310       Mg352   2.145       .  S
O310       Mg335   2.126       .  S
O310        C331   1.240       .  S
O311        C342   1.272       .  A
O311       Mg335   2.295       .  S
C312        O314   1.279       .  A
C312        O326   1.274       .  A
C312       C2675   1.490       .  S
O313        C341   1.273       .  A
O313       Mg315   2.306       .  S
O314       Mg346   2.300       .  S
Mg315       O321   2.124       .  S
Mg315       O329   2.289       .  S
Mg315       O317   2.361       .  S
C316        O354   1.271       .  A
C316        O322   1.281       .  A
C316       C2817   1.481       .  S
O317        C324   1.283       .  A
H318        C331   1.081       .  S
C319        O333   1.239       .  S
C319        O334   1.273       .  A
C319        H344   1.081       .  S
O320        C343   1.273       .  A
O321       Mg335   2.134       .  S
O322       Mg352   2.348       .  S
C323        O336   1.278       .  A
C323        O328   1.271       .  A
C323       C2785   1.490       .  S
C324        O351   1.270       .  A
C324       C2741   1.489       .  S
Mg325       O332   2.134       .  S
Mg325       O333   2.127       .  S
Mg325       O326   2.294       .  S
Mg325       O327   2.305       .  S
Mg325       O354   2.252       .  S
O327        C331   1.274       .  A
O328       Mg335   2.270       .  S
O329        C348   1.276       .  A
O330        C350   1.285       .  A
O330       Mg346   2.378       .  S
O332       Mg346   2.145       .  S
O332        C343   1.239       .  S
O333       Mg352   2.142       .  S
O334       Mg346   2.310       .  S
Mg335       O351   2.234       .  S
O336       Mg352   2.309       .  S
H337        C342   1.081       .  S
O338       Mg346   2.137       .  S
O338        C341   1.239       .  S
H339        C341   1.081       .  S
H340        C343   1.081       .  S
O345       Mg352   2.302       .  S
C348        O353   1.272       .  A
C348       C2895   1.479       .  S
O349        C350   1.270       .  A
C350       C2619   1.492       .  S
O355       Mg357   2.106       .  S
O355       Mg363   2.141       .  S
O355        C390   1.238       .  S
C356        O369   1.239       .  S
C356        O393   1.273       .  A
C356        H395   1.081       .  S
Mg357       O386   2.132       .  S
Mg357       O401   2.272       .  S
Mg357       O397   2.203       .  S
Mg357       O368   2.298       .  S
O358       Mg400   2.147       .  S
O358       Mg383   2.119       .  S
O358        C379   1.238       .  S
O359        C390   1.271       .  A
O359       Mg383   2.295       .  S
C360        O362   1.278       .  A
C360        O374   1.272       .  A
C360       C2487   1.489       .  S
O361        C389   1.273       .  A
O361       Mg363   2.308       .  S
O362       Mg394   2.309       .  S
Mg363       O369   2.132       .  S
Mg363       O377   2.298       .  S
Mg363       O365   2.343       .  S
C364        O402   1.269       .  A
C364        O370   1.282       .  A
C364       C2509   1.479       .  S
O365        C372   1.279       .  A
H366        C379   1.081       .  S
C367        O381   1.239       .  S
C367        O382   1.273       .  A
C367        H392   1.081       .  S
O368        C391   1.271       .  A
O369       Mg383   2.128       .  S
O370       Mg400   2.367       .  S
C371        O384   1.278       .  A
C371        O376   1.268       .  A
C371       C2575   1.485       .  S
C372        O399   1.267       .  A
C372       C2531   1.473       .  S
Mg373       O380   2.122       .  S
Mg373       O381   2.127       .  S
Mg373       O374   2.276       .  S
Mg373       O375   2.297       .  S
Mg373       O402   2.216       .  S
O375        C379   1.271       .  A
O376       Mg383   2.244       .  S
O377        C396   1.275       .  A
O378        C398   1.283       .  A
O378       Mg394   2.369       .  S
O380       Mg394   2.147       .  S
O380        C391   1.238       .  S
O381       Mg400   2.143       .  S
O382       Mg394   2.309       .  S
Mg383       O399   2.225       .  S
O384       Mg400   2.312       .  S
H385        C390   1.081       .  S
O386       Mg394   2.146       .  S
O386        C389   1.239       .  S
H387        C389   1.081       .  S
H388        C391   1.081       .  S
O393       Mg400   2.305       .  S
C396        O401   1.271       .  A
C396       C2565   1.487       .  S
O397        C398   1.266       .  A
C398       C2939   1.482       .  S
O403       Mg405   2.115       .  S
O403       Mg411   2.142       .  S
O403        C438   1.239       .  S
C404        O417   1.239       .  S
C404        O441   1.273       .  A
C404        H443   1.081       .  S
Mg405       O434   2.133       .  S
Mg405       O449   2.263       .  S
Mg405       O445   2.208       .  S
Mg405       O416   2.292       .  S
O406       Mg448   2.154       .  S
O406       Mg431   2.121       .  S
O406        C427   1.239       .  S
O407        C438   1.272       .  A
O407       Mg431   2.297       .  S
C408        O410   1.279       .  A
C408        O422   1.272       .  A
C408       C2421   1.483       .  S
O409        C437   1.274       .  A
O409       Mg411   2.311       .  S
O410       Mg442   2.307       .  S
Mg411       O417   2.139       .  S
Mg411       O425   2.319       .  S
Mg411       O413   2.373       .  S
C412        O450   1.269       .  A
C412        O418   1.285       .  A
C412       C2477   1.490       .  S
O413        C420   1.284       .  A
H414        C427   1.081       .  S
C415        O429   1.239       .  S
C415        O430   1.273       .  A
C415        H440   1.081       .  S
O416        C439   1.271       .  A
O417       Mg431   2.130       .  S
O418       Mg448   2.376       .  S
C419        O432   1.280       .  A
C419        O424   1.270       .  A
C419       C2399   1.487       .  S
C420        O447   1.269       .  A
C420       C2707   1.486       .  S
Mg421       O428   2.117       .  S
Mg421       O429   2.138       .  S
Mg421       O422   2.278       .  S
Mg421       O423   2.290       .  S
Mg421       O450   2.213       .  S
O423        C427   1.271       .  A
O424       Mg431   2.263       .  S
O425        C444   1.279       .  A
O426        C446   1.284       .  A
O426       Mg442   2.372       .  S
O428       Mg442   2.146       .  S
O428        C439   1.238       .  S
O429       Mg448   2.141       .  S
O430       Mg442   2.303       .  S
Mg431       O447   2.220       .  S
O432       Mg448   2.321       .  S
H433        C438   1.081       .  S
O434       Mg442   2.143       .  S
O434        C437   1.240       .  S
H435        C437   1.081       .  S
H436        C439   1.081       .  S
O441       Mg448   2.306       .  S
C444        O449   1.270       .  A
C444       C2873   1.491       .  S
O445        C446   1.267       .  A
C446       C2455   1.487       .  S
C451       C2377   1.499       .  S
C451        N452   1.371   1_455  A
C451        N456   1.372       .  A
N452        C453   1.363       .  A
C453       C3467   1.482       .  S
C453        N454   1.348   1_655  A
N454        C455   1.346       .  A
C455       C2433   1.472       .  S
C455        N456   1.363       .  A
C457       C2355   1.496       .  S
C457        N458   1.369       .  A
C457        N462   1.373       .  A
N458        C459   1.361       .  A
C459       C2521   1.477   1_545  S
C459        N460   1.346       .  A
N460        C461   1.346       .  A
C461       C2411   1.473       .  S
C461        N462   1.367       .  A
C463       C2333   1.496       .  S
C463        N464   1.374       .  A
C463        N468   1.370       .  A
N464        C465   1.367       .  A
C465       C2465   1.486       .  S
C465        N466   1.347       .  A
N466        C467   1.344       .  A
C467       C2587   1.470       .  S
C467        N468   1.358       .  A
C469       C2323   1.493       .  S
C469        N470   1.372   1_655  A
C469        N474   1.369       .  A
N470        C471   1.365       .  A
C471       C2443   1.479       .  S
C471        N472   1.348   1_455  A
N472        C473   1.344       .  A
C473       C3445   1.468       .  S
C473        N474   1.359       .  A
C475       C2289   1.496       .  S
C475        N476   1.371       .  A
C475        N480   1.371   1_545  A
N476        C477   1.363       .  A
C477       C3071   1.473       .  S
C477        N478   1.349       .  A
N478        C479   1.349   1_545  A
C479       C2499   1.477       .  S
C479        N480   1.363       .  A
C481       C2267   1.495   1_554  S
C481        N482   1.373       .  A
C481        N486   1.367   1_554  A
N482        C483   1.367       .  A
C483       C3367   1.480       .  S
C483        N484   1.349       .  A
N484        C485   1.349   1_554  A
C485       C3137   1.472       .  S
C485        N486   1.361       .  A
C487       C2245   1.492       .  S
C487        N488   1.369       .  A
C487        N492   1.369       .  A
N488        C489   1.363       .  A
C489       C2553   1.474       .  S
C489        N490   1.350       .  A
N490        C491   1.351       .  A
C491       C3687   1.481       .  S
C491        N492   1.364       .  A
C493       C2223   1.493       .  S
C493        N494   1.374       .  A
C493        N498   1.368       .  A
N494        C495   1.367       .  A
C495       C3665   1.478       .  S
C495        N496   1.347       .  A
N496        C497   1.345       .  A
C497       C2543   1.471       .  S
C497        N498   1.359       .  A
C499       C2201   1.493       .  S
C499        N500   1.369       .  A
C499        N504   1.373       .  A
N500        C501   1.360       .  A
C501       C3599   1.471       .  S
C501        N502   1.347       .  A
N502        C503   1.346       .  A
C503       C3521   1.475       .  S
C503        N504   1.365       .  A
C505       C2191   1.493       .  S
C505        N506   1.370       .  A
C505        N510   1.371       .  A
N506        C507   1.362       .  A
C507       C3577   1.471       .  S
C507        N508   1.348       .  A
N508        C509   1.348       .  A
C509       C3191   1.474       .  S
C509        N510   1.362       .  A
C511       C2157   1.492       .  S
C511        N512   1.369       .  A
C511        N516   1.371       .  A
N512        C513   1.362       .  A
C513       C3169   1.479       .  S
C513        N514   1.347       .  A
N514        C515   1.346       .  A
C515       C3643   1.472       .  S
C515        N516   1.364       .  A
C517       C2147   1.498       .  S
C517        N518   1.373       .  A
C517        N522   1.374       .  A
N518        C519   1.362       .  A
C519       C3621   1.477       .  S
C519        N520   1.344       .  A
N520        C521   1.346       .  A
C521       C3499   1.481       .  S
C521        N522   1.365       .  A
C523       C2113   1.500       .  S
C523        N524   1.371       .  A
C523        N528   1.369       .  A
N524        C525   1.365       .  A
C525       C3411   1.483       .  S
C525        N526   1.349       .  A
N526        C527   1.349       .  A
C527       C3555   1.469       .  S
C527        N528   1.363       .  A
O529       Mg531   2.154       .  S
O529       Mg537   2.136       .  S
O529        C564   1.240       .  S
C530        O543   1.238       .  S
C530        O567   1.272       .  A
C530        H569   1.081       .  S
Mg531       O560   2.142       .  S
Mg531       O575   2.388       .  S
Mg531       O571   2.339       .  S
Mg531       O542   2.310       .  S
O532       Mg574   2.129       .  S
O532       Mg557   2.153       .  S
O532        C553   1.240       .  S
O533        C564   1.275       .  A
O533       Mg557   2.314       .  S
C534        O536   1.269       .  A
C534        O548   1.282       .  A
C534       C1981   1.487       .  S
O535        C563   1.270       .  A
O535       Mg537   2.292       .  S
O536       Mg568   2.235       .  S
Mg537       O543   2.134       .  S
Mg537       O551   2.243       .  S
Mg537       O539   2.266       .  S
C538        O576   1.277       .  A
C538        O544   1.272       .  A
C538       C2069   1.492       .  S
O539        C546   1.271       .  A
H540        C553   1.081       .  S
C541        O555   1.239       .  S
C541        O556   1.272       .  A
C541        H566   1.081       .  S
O542        C565   1.275       .  A
O543       Mg557   2.146       .  S
O544       Mg574   2.282       .  S
C545        O558   1.267       .  A
C545        O550   1.284       .  A
C545       C2025   1.485       .  S
C546        O573   1.278       .  A
C546       C2015   1.489       .  S
Mg547       O554   2.146       .  S
Mg547       O555   2.141       .  S
Mg547       O548   2.363       .  S
Mg547       O549   2.315       .  S
Mg547       O576   2.311       .  S
O549        C553   1.275       .  A
O550       Mg557   2.381       .  S
O551        C570   1.271       .  A
O552        C572   1.272       .  A
O552       Mg568   2.271       .  S
O554       Mg568   2.132       .  S
O554        C565   1.241       .  S
O555       Mg574   2.118       .  S
O556       Mg568   2.299       .  S
Mg557       O573   2.312       .  S
O558       Mg574   2.221       .  S
H559        C564   1.081       .  S
O560       Mg568   2.116       .  S
O560        C563   1.237       .  S
H561        C563   1.081       .  S
H562        C565   1.081       .  S
O567       Mg574   2.304       .  S
C570        O575   1.287       .  A
C570       C2091   1.487       .  S
O571        C572   1.281       .  A
C572       C2047   1.496       .  S
O577       Mg579   2.135       .  S
O577       Mg585   2.135       .  S
O577        C612   1.238       .  S
C578        O591   1.238       .  S
C578        O615   1.271       .  A
C578        H617   1.081       .  S
Mg579       O608   2.138       .  S
Mg579       O623   2.362       .  S
Mg579       O619   2.299       .  S
Mg579       O590   2.310       .  S
O580       Mg622   2.137       .  S
O580       Mg605   2.145       .  S
O580        C601   1.239       .  S
O581        C612   1.272       .  A
O581       Mg605   2.303       .  S
C582        O584   1.268       .  A
C582        O596   1.283       .  A
C582       C1893   1.489       .  S
O583        C611   1.272       .  A
O583       Mg585   2.293       .  S
O584       Mg616   2.221       .  S
Mg585       O591   2.123       .  S
Mg585       O599   2.231       .  S
Mg585       O587   2.263       .  S
C586        O624   1.277       .  A
C586        O592   1.270       .  A
C586       C1959   1.482       .  S
O587        C594   1.271       .  A
H588        C601   1.081       .  S
C589        O603   1.239       .  S
C589        O604   1.273       .  A
C589        H614   1.081       .  S
O590        C613   1.274       .  A
O591       Mg605   2.154       .  S
O592       Mg622   2.273       .  S
C593        O606   1.268       .  A
C593        O598   1.284       .  A
C593       C1871   1.486       .  S
C594        O621   1.279       .  A
C594       C1849   1.485       .  S
Mg595       O602   2.137       .  S
Mg595       O603   2.145       .  S
Mg595       O596   2.366       .  S
Mg595       O597   2.310       .  S
Mg595       O624   2.295       .  S
O597        C601   1.273       .  A
O598       Mg605   2.375       .  S
O599        C618   1.270       .  A
O600        C620   1.273       .  A
O600       Mg616   2.291       .  S
O602       Mg616   2.129       .  S
O602        C613   1.239       .  S
O603       Mg622   2.129       .  S
O604       Mg616   2.301       .  S
Mg605       O621   2.311       .  S
O606       Mg622   2.211       .  S
H607        C612   1.081       .  S
O608       Mg616   2.120       .  S
O608        C611   1.239       .  S
H609        C611   1.081       .  S
H610        C613   1.081       .  S
O615       Mg622   2.290       .  S
C618        O623   1.283       .  A
C618       C1915   1.488       .  S
O619        C620   1.278       .  A
C620       C1937   1.490       .  S
C625       C2949   1.487       .  S
C625        N626   1.368       .  A
C625        N630   1.371       .  A
N626        C627   1.360       .  A
C627       C1827   1.469       .  S
C627        N628   1.346       .  A
N628        C629   1.350       .  A
C629       C1949   1.483       .  S
C629        N630   1.365       .  A
O631       Mg633   2.138       .  S
O631       Mg639   2.130       .  S
O631        C666   1.239       .  S
C632        O645   1.239       .  S
C632        O669   1.273       .  A
C632        H671   1.081       .  S
Mg633       O662   2.149       .  S
Mg633       O677   2.361       .  S
Mg633       O673   2.296       .  S
Mg633       O644   2.304       .  S
O634       Mg676   2.132       .  S
O634       Mg659   2.141       .  S
O634        C655   1.239       .  S
O635        C666   1.273       .  A
O635       Mg659   2.309       .  S
C636        O638   1.272       .  A
C636        O650   1.283       .  A
C636       C1805   1.485       .  S
O637        C665   1.273       .  A
O637       Mg639   2.304       .  S
O638       Mg670   2.249       .  S
Mg639       O645   2.131       .  S
Mg639       O653   2.251       .  S
Mg639       O641   2.277       .  S
C640        O678   1.277       .  A
C640        O646   1.271       .  A
C640       C1839   1.482       .  S
O641        C648   1.272       .  A
H642        C655   1.081       .  S
C643        O657   1.238       .  S
C643        O658   1.270       .  A
C643        H668   1.081       .  S
O644        C667   1.273       .  A
O645       Mg659   2.151       .  S
O646       Mg676   2.268       .  S
C647        O660   1.267       .  A
C647        O652   1.283       .  A
C647       C1773   1.488       .  S
C648        O675   1.278       .  A
C648       C1717   1.486       .  S
Mg649       O656   2.129       .  S
Mg649       O657   2.144       .  S
Mg649       O650   2.359       .  S
Mg649       O651   2.305       .  S
Mg649       O678   2.303       .  S
O651        C655   1.273       .  A
O652       Mg659   2.371       .  S
O653        C672   1.270       .  A
O654        C674   1.271       .  A
O654       Mg670   2.263       .  S
O656       Mg670   2.135       .  S
O656        C667   1.239       .  S
O657       Mg676   2.109       .  S
O658       Mg670   2.289       .  S
Mg659       O675   2.301       .  S
O660       Mg676   2.210       .  S
H661        C666   1.081       .  S
O662       Mg670   2.141       .  S
O662        C665   1.239       .  S
H663        C665   1.081       .  S
H664        C667   1.081       .  S
O669       Mg676   2.299       .  S
C672        O677   1.283       .  A
C672       C1783   1.485       .  S
O673        C674   1.277       .  A
C674       C1739   1.482       .  S
C679       C2125   1.498       .  S
C679        N680   1.371       .  A
C679        N684   1.375       .  A
N680        C681   1.360       .  A
C681       C1751   1.470       .  S
C681        N682   1.344       .  A
N682        C683   1.346       .  A
C683       C1695   1.480       .  S
C683        N684   1.368       .  A
C685       C2257   1.499       .  S
C685        N686   1.371       .  A
C685        N690   1.372       .  A
N686        C687   1.361       .  A
C687       C1651   1.469   1_556  S
C687        N688   1.346   1_556  A
N688        C689   1.348   1_554  A
C689       C1673   1.477   1_556  S
C689        N690   1.364       .  A
O691       Mg693   2.144       .  S
O691       Mg699   2.128       .  S
O691        C726   1.239       .  S
C692        O705   1.238       .  S
C692        O729   1.272       .  A
C692        H731   1.081       .  S
Mg693       O722   2.146       .  S
Mg693       O737   2.373       .  S
Mg693       O733   2.318       .  S
Mg693       O704   2.309       .  S
O694       Mg736   2.131       .  S
O694       Mg719   2.143       .  S
O694        C715   1.239       .  S
O695        C726   1.274       .  A
O695       Mg719   2.310       .  S
C696        O698   1.270       .  A
C696        O710   1.281       .  A
C696       C1629   1.486       .  S
O697        C725   1.273       .  A
O697       Mg699   2.302       .  S
O698       Mg730   2.234       .  S
Mg699       O705   2.121       .  S
Mg699       O713   2.228       .  S
Mg699       O701   2.283       .  S
C700        O738   1.277       .  A
C700        O706   1.273       .  A
C700       C1685   1.486       .  S
O701        C708   1.273       .  A
H702        C715   1.081       .  S
C703        O717   1.238       .  S
C703        O718   1.271       .  A
C703        H728   1.081       .  S
O704        C727   1.274       .  A
O705       Mg719   2.144       .  S
O706       Mg736   2.289       .  S
C707        O720   1.268       .  A
C707        O712   1.282       .  A
C707       C1619   1.486       .  S
C708        O735   1.277       .  A
C708       C1597   1.486       .  S
Mg709       O716   2.138       .  S
Mg709       O717   2.141       .  S
Mg709       O710   2.357       .  S
Mg709       O711   2.306       .  S
Mg709       O738   2.291       .  S
O711        C715   1.273       .  A
O712       Mg719   2.368       .  S
O713        C732   1.269       .  A
O714        C734   1.271       .  A
O714       Mg730   2.269       .  S
O716       Mg730   2.135       .  S
O716        C727   1.240       .  S
O717       Mg736   2.120       .  S
O718       Mg730   2.294       .  S
Mg719       O735   2.300       .  S
O720       Mg736   2.210       .  S
H721        C726   1.081       .  S
O722       Mg730   2.127       .  S
O722        C725   1.239       .  S
H723        C725   1.081       .  S
H724        C727   1.081       .  S
O729       Mg736   2.296       .  S
C732        O737   1.284       .  A
C732       C1563   1.486       .  S
O733        C734   1.279       .  A
C734       C1707   1.490       .  S
C739       C2345   1.491       .  S
C739        N740   1.372       .  A
C739        N744   1.370       .  A
N740        C741   1.364       .  A
C741       C1993   1.478       .  S
C741        N742   1.348       .  A
N742        C743   1.347       .  A
C743       C1729   1.472       .  S
C743        N744   1.361       .  A
O745       Mg747   2.130       .  S
O745       Mg753   2.130       .  S
O745        C780   1.239       .  S
C746        O759   1.239       .  S
C746        O783   1.273       .  A
C746        H785   1.081       .  S
Mg747       O776   2.141       .  S
Mg747       O791   2.349       .  S
Mg747       O787   2.294       .  S
Mg747       O758   2.304       .  S
O748       Mg790   2.129       .  S
O748       Mg773   2.138       .  S
O748        C769   1.239       .  S
O749        C780   1.273       .  A
O749       Mg773   2.304       .  S
C750        O752   1.268       .  A
C750        O764   1.284       .  A
C750       C1553   1.485       .  S
O751        C779   1.272       .  A
O751       Mg753   2.296       .  S
O752       Mg784   2.214       .  S
Mg753       O759   2.124       .  S
Mg753       O767   2.241       .  S
Mg753       O755   2.279       .  S
C754        O792   1.278       .  A
C754        O760   1.271       .  A
C754       C1497   1.483       .  S
O755        C762   1.273       .  A
H756        C769   1.081       .  S
C757        O771   1.239       .  S
C757        O772   1.273       .  A
C757        H782   1.081       .  S
O758        C781   1.273       .  A
O759       Mg773   2.143       .  S
O760       Mg790   2.271       .  S
C761        O774   1.269       .  A
C761        O766   1.281       .  A
C761       C1475   1.477       .  S
C762        O789   1.277       .  A
C762       C1465   1.486       .  S
Mg763       O770   2.132       .  S
Mg763       O771   2.150       .  S
Mg763       O764   2.371       .  S
Mg763       O765   2.306       .  S
Mg763       O792   2.306       .  S
O765        C769   1.273       .  A
O766       Mg773   2.359       .  S
O767        C786   1.271       .  A
O768        C788   1.271       .  A
O768       Mg784   2.277       .  S
O770       Mg784   2.128       .  S
O770        C781   1.240       .  S
O771       Mg790   2.126       .  S
O772       Mg784   2.298       .  S
Mg773       O789   2.295       .  S
O774       Mg790   2.229       .  S
H775        C780   1.081       .  S
O776       Mg784   2.116       .  S
O776        C779   1.239       .  S
H777        C779   1.081       .  S
H778        C781   1.081       .  S
O783       Mg790   2.299       .  S
C786        O791   1.282       .  A
C786       C1519   1.486       .  S
O787        C788   1.276       .  A
C788       C1663   1.480       .  S
C793       C3269   1.493       .  S
C793        N794   1.372       .  A
C793        N798   1.366   1_556  A
N794        C795   1.367       .  A
C795       C1431   1.473       .  S
C795        N796   1.348       .  A
N796        C797   1.348   1_556  A
C797       C1541   1.473       .  S
C797        N798   1.357       .  A
O799       Mg801   2.140       .  S
O799       Mg807   2.131       .  S
O799        C834   1.239       .  S
C800        O813   1.238       .  S
C800        O837   1.271       .  A
C800        H839   1.081       .  S
Mg801       O830   2.144       .  S
Mg801       O845   2.349       .  S
Mg801       O841   2.306       .  S
Mg801       O812   2.308       .  S
O802       Mg844   2.132       .  S
O802       Mg827   2.137       .  S
O802        C823   1.239       .  S
O803        C834   1.273       .  A
O803       Mg827   2.306       .  S
C804        O806   1.268       .  A
C804        O818   1.282       .  A
C804       C1343   1.481       .  S
O805        C833   1.272       .  A
O805       Mg807   2.302       .  S
O806       Mg838   2.228       .  S
Mg807       O813   2.120       .  S
Mg807       O821   2.227       .  S
Mg807       O809   2.268       .  S
C808        O846   1.277       .  A
C808        O814   1.270       .  A
C808       C1421   1.485       .  S
O809        C816   1.271       .  A
H810        C823   1.081       .  S
C811        O825   1.238       .  S
C811        O826   1.272       .  A
C811        H836   1.081       .  S
O812        C835   1.273       .  A
O813       Mg827   2.150       .  S
O814       Mg844   2.256       .  S
C815        O828   1.269       .  A
C815        O820   1.284       .  A
C815       C1387   1.484       .  S
C816        O843   1.279       .  A
C816       C1365   1.486       .  S
Mg817       O824   2.135       .  S
Mg817       O825   2.155       .  S
Mg817       O818   2.356       .  S
Mg817       O819   2.304       .  S
Mg817       O846   2.305       .  S
O819        C823   1.272       .  A
O820       Mg827   2.370       .  S
O821        C840   1.268       .  A
O822        C842   1.270       .  A
O822       Mg838   2.265       .  S
O824       Mg838   2.131       .  S
O824        C835   1.239       .  S
O825       Mg844   2.128       .  S
O826       Mg838   2.298       .  S
Mg827       O843   2.316       .  S
O828       Mg844   2.237       .  S
H829        C834   1.081       .  S
O830       Mg838   2.123       .  S
O830        C833   1.239       .  S
H831        C833   1.081       .  S
H832        C835   1.081       .  S
O837       Mg844   2.295       .  S
C840        O845   1.281       .  A
C840       C1333   1.477       .  S
O841        C842   1.277       .  A
C842       C1299   1.488       .  S
C847       C2917   1.492       .  S
C847        N848   1.369       .  A
C847        N852   1.369   1_565  A
N848        C849   1.362       .  A
C849       C1277   1.470       .  S
C849        N850   1.348       .  A
N850        C851   1.349   1_565  A
C851       C1409   1.473       .  S
C851        N852   1.362       .  A
O853       Mg855   2.147       .  S
O853       Mg861   2.138       .  S
O853        C888   1.241       .  S
C854        O867   1.238       .  S
C854        O891   1.271       .  A
C854        H893   1.081       .  S
Mg855       O884   2.151       .  S
Mg855       O899   2.383       .  S
Mg855       O895   2.324       .  S
Mg855       O866   2.312       .  S
O856       Mg898   2.134       .  S
O856       Mg881   2.145       .  S
O856        C877   1.239       .  S
O857        C888   1.275       .  A
O857       Mg881   2.309       .  S
C858        O860   1.269       .  A
C858        O872   1.283       .  A
C858       C1189   1.486       .  S
O859        C887   1.270       .  A
O859       Mg861   2.291       .  S
O860       Mg892   2.233       .  S
Mg861       O867   2.114       .  S
Mg861       O875   2.217       .  S
Mg861       O863   2.262       .  S
C862        O900   1.278       .  A
C862        O868   1.273       .  A
C862       C1289   1.488       .  S
O863        C870   1.270       .  A
H864        C877   1.081       .  S
C865        O879   1.238       .  S
C865        O880   1.271       .  A
C865        H890   1.081       .  S
O866        C889   1.275       .  A
O867       Mg881   2.143       .  S
O868       Mg898   2.277       .  S
C869        O882   1.270       .  A
C869        O874   1.282       .  A
C869       C1211   1.481       .  S
C870        O897   1.277       .  A
C870       C1443   1.490       .  S
Mg871       O878   2.147       .  S
Mg871       O879   2.148       .  S
Mg871       O872   2.364       .  S
Mg871       O873   2.307       .  S
Mg871       O900   2.307       .  S
O873        C877   1.273       .  A
O874       Mg881   2.357       .  S
O875        C894   1.268       .  A
O876        C896   1.270       .  A
O876       Mg892   2.257       .  S
O878       Mg892   2.136       .  S
O878        C889   1.240       .  S
O879       Mg898   2.125       .  S
O880       Mg892   2.296       .  S
Mg881       O897   2.321       .  S
O882       Mg898   2.240       .  S
H883        C888   1.081       .  S
O884       Mg892   2.118       .  S
O884        C887   1.237       .  S
H885        C887   1.081       .  S
H886        C889   1.081       .  S
O891       Mg898   2.296       .  S
C894        O899   1.285       .  A
C894       C1233   1.490       .  S
O895        C896   1.279       .  A
C896       C1255   1.490       .  S
O901       Mg903   2.140       .  S
O901       Mg909   2.122       .  S
O901        C936   1.239       .  S
C902        O915   1.239       .  S
C902        O939   1.271       .  A
C902        H941   1.081       .  S
Mg903       O932   2.139       .  S
Mg903       O947   2.367       .  S
Mg903       O943   2.303       .  S
Mg903       O914   2.316       .  S
O904       Mg946   2.141       .  S
O904       Mg929   2.144       .  S
O904        C925   1.240       .  S
O905        C936   1.274       .  A
O905       Mg929   2.309       .  S
C906        O908   1.268       .  A
C906        O920   1.282       .  A
C906       C1079   1.480       .  S
O907        C935   1.273       .  A
O907       Mg909   2.307       .  S
O908       Mg940   2.229       .  S
Mg909       O915   2.115       .  S
Mg909       O923   2.231       .  S
Mg909       O911   2.254       .  S
C910        O948   1.277       .  A
C910        O916   1.273       .  A
C910       C1069   1.488       .  S
O911        C918   1.270       .  A
H912        C925   1.081       .  S
C913        O927   1.237       .  S
C913        O928   1.270       .  A
C913        H938   1.081       .  S
O914        C937   1.275       .  A
O915       Mg929   2.158       .  S
O916       Mg946   2.274       .  S
C917        O930   1.268       .  A
C917        O922   1.284       .  A
C917       C1101   1.475       .  S
C918        O945   1.280       .  A
C918       C1167   1.491       .  S
Mg919       O926   2.141       .  S
Mg919       O927   2.137       .  S
Mg919       O920   2.362       .  S
Mg919       O921   2.306       .  S
Mg919       O948   2.305       .  S
O921        C925   1.274       .  A
O922       Mg929   2.369       .  S
O923        C942   1.267       .  A
O924        C944   1.268       .  A
O924       Mg940   2.252       .  S
O926       Mg940   2.129       .  S
O926        C937   1.240       .  S
O927       Mg946   2.109       .  S
O928       Mg940   2.292       .  S
Mg929       O945   2.331       .  S
O930       Mg946   2.216       .  S
H931        C936   1.081       .  S
O932       Mg940   2.126       .  S
O932        C935   1.239       .  S
H933        C935   1.081       .  S
H934        C937   1.081       .  S
O939       Mg946   2.288       .  S
C942        O947   1.282       .  A
C942       C1157   1.477       .  S
O943        C944   1.276       .  A
C944       C1135   1.483       .  S
C949       C2389   1.493       .  S
C949        N950   1.368       .  A
C949        N954   1.369   1_655  A
N950        C951   1.362       .  A
C951       C1267   1.474       .  S
C951        N952   1.350       .  A
N952        C953   1.351   1_655  A
C953       C1179   1.474       .  S
C953        N954   1.363       .  A
C955       C2169   1.499       .  S
C955        N956   1.374       .  A
C955        N960   1.370       .  A
N956        C957   1.366       .  A
C957       C2103   1.483   1_655  S
C957        N958   1.349   1_655  A
N958        C959   1.348   1_455  A
C959       C1145   1.474   1_655  S
C959        N960   1.361       .  A
C961       C2179   1.498       .  S
C961        N962   1.372       .  A
C961        N966   1.369       .  A
N962        C963   1.365       .  A
C963       C2059   1.477       .  S
C963        N964   1.348       .  A
N964        C965   1.350       .  A
C965       C1123   1.477       .  S
C965        N966   1.361       .  A
C967       C2213   1.495       .  S
C967        N968   1.375       .  A
C967        N972   1.371       .  A
N968        C969   1.365       .  A
C969       C1399   1.481   1_565  S
C969        N970   1.347   1_565  A
N970        C971   1.345   1_545  A
C971       C1971   1.471   1_565  S
C971        N972   1.360       .  A
C973       C2597   1.496       .  S
C973        N974   1.369   1_455  A
C973        N978   1.375       .  A
N974        C975   1.358       .  A
C975       C1321   1.473       .  S
C975        N976   1.345   1_655  A
N976        C977   1.347       .  A
C977       C2037   1.482       .  S
C977        N978   1.368       .  A
C979       C2653   1.496       .  S
C979        N980   1.372   1_655  A
C979        N984   1.371       .  A
N980        C981   1.363       .  A
C981       C2003   1.472       .  S
C981        N982   1.346   1_455  A
N982        C983   1.348       .  A
C983       C1311   1.475       .  S
C983        N984   1.364       .  A
C985       C2235   1.494       .  S
C985        N986   1.370       .  A
C985        N990   1.371       .  A
N986        C987   1.362       .  A
C987       C1641   1.475       .  S
C987        N988   1.347       .  A
N988        C989   1.349       .  A
C989       C1531   1.476       .  S
C989        N990   1.363       .  A
C991       C2839   1.496       .  S
C991        N992   1.373   1_565  A
C991        N996   1.370       .  A
N992        C993   1.367       .  A
C993       C1883   1.481       .  S
C993        N994   1.348   1_545  A
N994        C995   1.344       .  A
C995       C1487   1.469       .  S
C995        N996   1.360       .  A
C997       C2763   1.498       .  S
C997        N998   1.373   1_556  A
C997       N1002   1.371       .  A
N998        C999   1.367       .  A
C999       C1607   1.480       .  S
C999       N1000   1.347   1_554  A
N1000      C1001   1.345       .  A
C1001      C1057   1.472       .  S
C1001      N1002   1.362       .  A
C1003      C2135   1.493       .  S
C1003      N1004   1.372       .  A
C1003      N1008   1.371       .  A
N1004      C1005   1.365       .  A
C1005      C1905   1.486       .  S
C1005      N1006   1.350       .  A
N1006      C1007   1.346       .  A
C1007      C1377   1.472       .  S
C1007      N1008   1.362       .  A
C1009      C3247   1.498       .  S
C1009      N1010   1.371       .  A
C1009      N1014   1.371       .  A
N1010      C1011   1.363       .  A
C1011      C1795   1.475       .  S
C1011      N1012   1.349       .  A
N1012      C1013   1.350       .  A
C1013      C1575   1.481       .  S
C1013      N1014   1.364       .  A
C1015      C2807   1.494       .  S
C1015      N1016   1.371       .  A
C1015      N1020   1.373   1_556  A
N1016      C1017   1.363       .  A
C1017      C1091   1.476       .  S
C1017      N1018   1.346       .  A
N1018      C1019   1.345   1_556  A
C1019      C1585   1.472       .  S
C1019      N1020   1.363       .  A
C1021      C2697   1.490   1_565  S
C1021      N1022   1.371   1_565  A
C1021      N1026   1.371       .  A
N1022      C1023   1.363       .  A
C1023      C1861   1.473       .  S
C1023      N1024   1.346   1_545  A
N1024      C1025   1.345       .  A
C1025      C1453   1.470       .  S
C1025      N1026   1.362       .  A
C1027      C2971   1.489       .  S
C1027      N1028   1.370       .  A
C1027      N1032   1.369       .  A
N1028      C1029   1.362       .  A
C1029      C1817   1.476       .  S
C1029      N1030   1.349       .  A
N1030      C1031   1.349       .  A
C1031      C1927   1.482       .  S
C1031      N1032   1.363       .  A
C1033      C2367   1.493       .  S
C1033      N1034   1.374       .  A
C1033      N1038   1.372       .  A
N1034      C1035   1.366       .  A
C1035      C1761   1.487       .  S
C1035      N1036   1.346       .  A
N1036      C1037   1.344       .  A
C1037      C2081   1.476       .  S
C1037      N1038   1.364       .  A
C1039      C2311   1.500       .  S
C1039      N1040   1.375       .  A
C1039      N1044   1.369   1_655  A
N1040      C1041   1.368       .  A
C1041      C1245   1.490   1_554  S
C1041      N1042   1.349   1_654  A
N1042      C1043   1.345   1_556  A
C1043      C1113   1.471   1_554  S
C1043      N1044   1.358       .  A
C1045      C2279   1.501       .  S
C1045      N1046   1.372   1_556  A
C1045      N1050   1.372       .  A
N1046      C1047   1.363       .  A
C1047      C1509   1.472   1_545  S
C1047      N1048   1.346   1_545  A
N1048      C1049   1.348   1_564  A
C1049      C1223   1.478   1_545  S
C1049      N1050   1.364       .  A
C1051      C2301   1.495       .  S
C1051      N1052   1.376       .  A
C1051      N1056   1.373   1_565  A
N1052      C1053   1.366       .  A
C1053      C1201   1.487   1_455  S
C1053      N1054   1.344   1_455  A
N1054      C1055   1.343   1_665  A
C1055      C1355   1.480   1_455  S
C1055      N1056   1.361       .  A
C1057      C1058   1.396       .  A
C1057      C1062   1.404       .  A
C1058      H1071   1.083       .  S
C1058      C1059   1.400       .  A
C1059      H1072   1.078       .  S
C1059      C1060   1.419       .  A
C1060      C1066   1.431       .  A
C1060      C1061   1.419       .  A
C1061      C1063   1.401       .  A
C1061      C1062   1.404       .  A
C1062      H1073   1.085       .  S
C1063      H1074   1.084       .  S
C1063      C1064   1.392       .  A
C1064      H1075   1.084       .  S
C1064      C1065   1.400       .  A
C1065      C1066   1.424       .  A
C1065      C1070   1.411       .  A
C1066      C1067   1.410       .  A
C1067      H1076   1.077       .  S
C1067      C1068   1.393       .  A
C1068      H1077   1.083       .  S
C1068      C1069   1.405       .  A
C1069      C1070   1.404       .  A
C1070      H1078   1.084       .  S
C1079      C1080   1.404       .  A
C1079      C1084   1.399       .  A
C1080      H1093   1.084       .  S
C1080      C1081   1.397       .  A
C1081      H1094   1.078       .  S
C1081      C1082   1.412       .  A
C1082      C1088   1.433       .  A
C1082      C1083   1.426       .  A
C1083      C1085   1.398       .  A
C1083      C1084   1.408       .  A
C1084      H1095   1.085       .  S
C1085      H1096   1.084       .  S
C1085      C1086   1.388       .  A
C1086      H1097   1.084       .  S
C1086      C1087   1.400       .  A
C1087      C1088   1.420       .  A
C1087      C1092   1.400       .  A
C1088      C1089   1.421       .  A
C1089      H1098   1.078       .  S
C1089      C1090   1.404       .  A
C1090      H1099   1.083       .  S
C1090      C1091   1.398       .  A
C1091      C1092   1.402       .  A
C1092      H1100   1.085       .  S
C1101      C1102   1.396       .  A
C1101      C1106   1.403       .  A
C1102      H1115   1.083       .  S
C1102      C1103   1.403       .  A
C1103      H1116   1.077       .  S
C1103      C1104   1.421       .  A
C1104      C1110   1.431       .  A
C1104      C1105   1.419       .  A
C1105      C1107   1.401       .  A
C1105      C1106   1.402       .  A
C1106      H1117   1.085       .  S
C1107      H1118   1.084       .  S
C1107      C1108   1.391       .  A
C1108      H1119   1.084       .  S
C1108      C1109   1.399       .  A
C1109      C1110   1.426       .  A
C1109      C1114   1.410   1_556  A
C1110      C1111   1.411       .  A
C1111      H1120   1.077       .  S
C1111      C1112   1.393       .  A
C1112      H1121   1.084       .  S
C1112      C1113   1.400       .  A
C1113      C1114   1.399   1_556  A
C1114      H1122   1.085       .  S
C1123      C1124   1.401       .  A
C1123      C1128   1.400       .  A
C1124      H1137   1.084       .  S
C1124      C1125   1.391       .  A
C1125      H1138   1.077       .  S
C1125      C1126   1.410       .  A
C1126      C1132   1.430       .  A
C1126      C1127   1.426       .  A
C1127      C1129   1.399       .  A
C1127      C1128   1.411       .  A
C1128      H1139   1.084       .  S
C1129      H1140   1.084       .  S
C1129      C1130   1.391       .  A
C1130      H1141   1.084       .  S
C1130      C1131   1.401       .  A
C1131      C1132   1.418       .  A
C1131      C1136   1.401       .  A
C1132      C1133   1.419       .  A
C1133      H1142   1.077       .  S
C1133      C1134   1.400       .  A
C1134      H1143   1.083       .  S
C1134      C1135   1.398       .  A
C1135      C1136   1.407       .  A
C1136      H1144   1.085       .  S
C1145      C1146   1.398       .  A
C1145      C1150   1.401       .  A
C1146      H1159   1.083   1_455  S
C1146      C1147   1.403       .  A
C1147      H1160   1.078       .  S
C1147      C1148   1.420       .  A
C1148      C1154   1.433       .  A
C1148      C1149   1.421       .  A
C1149      C1151   1.399       .  A
C1149      C1150   1.402       .  A
C1150      H1161   1.085       .  S
C1151      H1162   1.084       .  S
C1151      C1152   1.389       .  A
C1152      H1163   1.084       .  S
C1152      C1153   1.398       .  A
C1153      C1154   1.425       .  A
C1153      C1158   1.408       .  A
C1154      C1155   1.414       .  A
C1155      H1164   1.078       .  S
C1155      C1156   1.398       .  A
C1156      H1165   1.084       .  S
C1156      C1157   1.402       .  A
C1157      C1158   1.399       .  A
C1158      H1166   1.085       .  S
C1167      C1168   1.406       .  A
C1167      C1172   1.404       .  A
C1168      H1181   1.083       .  S
C1168      C1169   1.394       .  A
C1169      H1182   1.077       .  S
C1169      C1170   1.410       .  A
C1170      C1176   1.432       .  A
C1170      C1171   1.425       .  A
C1171      C1173   1.400       .  A
C1171      C1172   1.414       .  A
C1172      H1183   1.084       .  S
C1173      H1184   1.084       .  S
C1173      C1174   1.393       .  A
C1174      H1185   1.084       .  S
C1174      C1175   1.401       .  A
C1175      C1176   1.420       .  A
C1175      C1180   1.406       .  A
C1176      C1177   1.419       .  A
C1177      H1186   1.078       .  S
C1177      C1178   1.401       .  A
C1178      H1187   1.083       .  S
C1178      C1179   1.397       .  A
C1179      C1180   1.402       .  A
C1180      H1188   1.085       .  S
C1189      C1190   1.406       .  A
C1189      C1194   1.398       .  A
C1190      H1203   1.083       .  S
C1190      C1191   1.399       .  A
C1191      H1204   1.078       .  S
C1191      C1192   1.411       .  A
C1192      C1198   1.436       .  A
C1192      C1193   1.428       .  A
C1193      C1195   1.396       .  A
C1193      C1194   1.407       .  A
C1194      H1205   1.085       .  S
C1195      H1206   1.084       .  S
C1195      C1196   1.386       .  A
C1196      H1207   1.084       .  S
C1196      C1197   1.400       .  A
C1197      C1198   1.417       .  A
C1197      C1202   1.396       .  A
C1198      C1199   1.424       .  A
C1199      H1208   1.078       .  S
C1199      C1200   1.411       .  A
C1200      H1209   1.083   1_655  S
C1200      C1201   1.400       .  A
C1201      C1202   1.405       .  A
C1202      H1210   1.085       .  S
C1211      C1212   1.399       .  A
C1211      C1216   1.404       .  A
C1212      H1225   1.083       .  S
C1212      C1213   1.400       .  A
C1213      H1226   1.077       .  S
C1213      C1214   1.418       .  A
C1214      C1220   1.432       .  A
C1214      C1215   1.420       .  A
C1215      C1217   1.401       .  A
C1215      C1216   1.405       .  A
C1216      H1227   1.085       .  S
C1217      H1228   1.084       .  S
C1217      C1218   1.392       .  A
C1218      H1229   1.084       .  S
C1218      C1219   1.399       .  A
C1219      C1220   1.426       .  A
C1219      C1224   1.412       .  A
C1220      C1221   1.411       .  A
C1221      H1230   1.077       .  S
C1221      C1222   1.393       .  A
C1222      H1231   1.084       .  S
C1222      C1223   1.402       .  A
C1223      C1224   1.399       .  A
C1224      H1232   1.084   1_565  S
C1233      C1234   1.398       .  A
C1233      C1238   1.410       .  A
C1234      H1247   1.083       .  S
C1234      C1235   1.404       .  A
C1235      H1248   1.077       .  S
C1235      C1236   1.422       .  A
C1236      C1242   1.433       .  A
C1236      C1237   1.417       .  A
C1237      C1239   1.402       .  A
C1237      C1238   1.403       .  A
C1238      H1249   1.084       .  S
C1239      H1250   1.084       .  S
C1239      C1240   1.392       .  A
C1240      H1251   1.084   1_556  S
C1240      C1241   1.399       .  A
C1241      C1242   1.428       .  A
C1241      C1246   1.415       .  A
C1242      C1243   1.407       .  A
C1243      H1252   1.077       .  S
C1243      C1244   1.391       .  A
C1244      H1253   1.083       .  S
C1244      C1245   1.407       .  A
C1245      C1246   1.402       .  A
C1246      H1254   1.084   1_556  S
C1255      C1256   1.406       .  A
C1255      C1260   1.404       .  A
C1256      H1269   1.083       .  S
C1256      C1257   1.393       .  A
C1257      H1270   1.078       .  S
C1257      C1258   1.410       .  A
C1258      C1264   1.431       .  A
C1258      C1259   1.425       .  A
C1259      C1261   1.400       .  A
C1259      C1260   1.413       .  A
C1260      H1271   1.084       .  S
C1261      H1272   1.084       .  S
C1261      C1262   1.393       .  A
C1262      H1273   1.084       .  S
C1262      C1263   1.401       .  A
C1263      C1264   1.420       .  A
C1263      C1268   1.407       .  A
C1264      C1265   1.418       .  A
C1265      H1274   1.078       .  S
C1265      C1266   1.400       .  A
C1266      H1275   1.083       .  S
C1266      C1267   1.397       .  A
C1267      C1268   1.403       .  A
C1268      H1276   1.085       .  S
C1277      C1278   1.400       .  A
C1277      C1282   1.398       .  A
C1278      H1291   1.084       .  S
C1278      C1279   1.398       .  A
C1279      H1292   1.078       .  S
C1279      C1280   1.414       .  A
C1280      C1286   1.434       .  A
C1280      C1281   1.425       .  A
C1281      C1283   1.399       .  A
C1281      C1282   1.408       .  A
C1282      H1293   1.085       .  S
C1283      H1294   1.084       .  S
C1283      C1284   1.390       .  A
C1284      H1295   1.084       .  S
C1284      C1285   1.400       .  A
C1285      C1286   1.421       .  A
C1285      C1290   1.404       .  A
C1286      C1287   1.418       .  A
C1287      H1296   1.078       .  S
C1287      C1288   1.402       .  A
C1288      H1297   1.083       .  S
C1288      C1289   1.401       .  A
C1289      C1290   1.405       .  A
C1290      H1298   1.085       .  S
C1299      C1300   1.400       .  A
C1299      C1304   1.407       .  A
C1300      H1313   1.083       .  S
C1300      C1301   1.402       .  A
C1301      H1314   1.077       .  S
C1301      C1302   1.419       .  A
C1302      C1308   1.432       .  A
C1302      C1303   1.419       .  A
C1303      C1305   1.401       .  A
C1303      C1304   1.403       .  A
C1304      H1315   1.084       .  S
C1305      H1316   1.084       .  S
C1305      C1306   1.391       .  A
C1306      H1317   1.084       .  S
C1306      C1307   1.398       .  A
C1307      C1308   1.426       .  A
C1307      C1312   1.410       .  A
C1308      C1309   1.411       .  A
C1309      H1318   1.078       .  S
C1309      C1310   1.395       .  A
C1310      H1319   1.084       .  S
C1310      C1311   1.402       .  A
C1311      C1312   1.399       .  A
C1312      H1320   1.085       .  S
C1321      C1322   1.397       .  A
C1321      C1326   1.400       .  A
C1322      H1335   1.083       .  S
C1322      C1323   1.403       .  A
C1323      H1336   1.077       .  S
C1323      C1324   1.421       .  A
C1324      C1330   1.431       .  A
C1324      C1325   1.420       .  A
C1325      C1327   1.399       .  A
C1325      C1326   1.398       .  A
C1326      H1337   1.085       .  S
C1327      H1338   1.084       .  S
C1327      C1328   1.387       .  A
C1328      H1339   1.084       .  S
C1328      C1329   1.397       .  A
C1329      C1330   1.426       .  A
C1329      C1334   1.405       .  A
C1330      C1331   1.413       .  A
C1331      H1340   1.078       .  S
C1331      C1332   1.396       .  A
C1332      H1341   1.084       .  S
C1332      C1333   1.403       .  A
C1333      C1334   1.397       .  A
C1334      H1342   1.085       .  S
C1343      C1344   1.405       .  A
C1343      C1348   1.397       .  A
C1344      H1357   1.084       .  S
C1344      C1345   1.398       .  A
C1345      H1358   1.078       .  S
C1345      C1346   1.412       .  A
C1346      C1352   1.433       .  A
C1346      C1347   1.427       .  A
C1347      C1349   1.396       .  A
C1347      C1348   1.405       .  A
C1348      H1359   1.085       .  S
C1349      H1360   1.084       .  S
C1349      C1350   1.385       .  A
C1350      H1361   1.084       .  S
C1350      C1351   1.399       .  A
C1351      C1352   1.418       .  A
C1351      C1356   1.395       .  A
C1352      C1353   1.423       .  A
C1353      H1362   1.078       .  S
C1353      C1354   1.408       .  A
C1354      H1363   1.083   1_655  S
C1354      C1355   1.399       .  A
C1355      C1356   1.403       .  A
C1356      H1364   1.085       .  S
C1365      C1366   1.401       .  A
C1365      C1370   1.404       .  A
C1366      H1379   1.083       .  S
C1366      C1367   1.404       .  A
C1367      H1380   1.078       .  S
C1367      C1368   1.418       .  A
C1368      C1374   1.435       .  A
C1368      C1369   1.422       .  A
C1369      C1371   1.400       .  A
C1369      C1370   1.405       .  A
C1370      H1381   1.085       .  S
C1371      H1382   1.084       .  S
C1371      C1372   1.390       .  A
C1372      H1383   1.084       .  S
C1372      C1373   1.399       .  A
C1373      C1374   1.424       .  A
C1373      C1378   1.407       .  A
C1374      C1375   1.416       .  A
C1375      H1384   1.078       .  S
C1375      C1376   1.402       .  A
C1376      H1385   1.083       .  S
C1376      C1377   1.400       .  A
C1377      C1378   1.400       .  A
C1378      H1386   1.085       .  S
C1387      C1388   1.398       .  A
C1387      C1392   1.409       .  A
C1388      H1401   1.083       .  S
C1388      C1389   1.399       .  A
C1389      H1402   1.078       .  S
C1389      C1390   1.418       .  A
C1390      C1396   1.429       .  A
C1390      C1391   1.418       .  A
C1391      C1393   1.403       .  A
C1391      C1392   1.408       .  A
C1392      H1403   1.085       .  S
C1393      H1404   1.084       .  S
C1393      C1394   1.396       .  A
C1394      H1405   1.084       .  S
C1394      C1395   1.401       .  A
C1395      C1396   1.425       .  A
C1395      C1400   1.417       .  A
C1396      C1397   1.408       .  A
C1397      H1406   1.078       .  S
C1397      C1398   1.390       .  A
C1398      H1407   1.084       .  S
C1398      C1399   1.403       .  A
C1399      C1400   1.403       .  A
C1400      H1408   1.084   1_545  S
C1409      C1410   1.396       .  A
C1409      C1414   1.403       .  A
C1410      H1423   1.083       .  S
C1410      C1411   1.400       .  A
C1411      H1424   1.078       .  S
C1411      C1412   1.419       .  A
C1412      C1418   1.429       .  A
C1412      C1413   1.419       .  A
C1413      C1415   1.401       .  A
C1413      C1414   1.403       .  A
C1414      H1425   1.085       .  S
C1415      H1426   1.084       .  S
C1415      C1416   1.392       .  A
C1416      H1427   1.084       .  S
C1416      C1417   1.400       .  A
C1417      C1418   1.425       .  A
C1417      C1422   1.410       .  A
C1418      C1419   1.410       .  A
C1419      H1428   1.078       .  S
C1419      C1420   1.392       .  A
C1420      H1429   1.083       .  S
C1420      C1421   1.405       .  A
C1421      C1422   1.402       .  A
C1422      H1430   1.084       .  S
C1431      C1432   1.402       .  A
C1431      C1436   1.398       .  A
C1432      H1445   1.084       .  S
C1432      C1433   1.400       .  A
C1433      H1446   1.078       .  S
C1433      C1434   1.414       .  A
C1434      C1440   1.436       .  A
C1434      C1435   1.426       .  A
C1435      C1437   1.398       .  A
C1435      C1436   1.408       .  A
C1436      H1447   1.085       .  S
C1437      H1448   1.084       .  S
C1437      C1438   1.388       .  A
C1438      H1449   1.084       .  S
C1438      C1439   1.400       .  A
C1439      C1440   1.420       .  A
C1439      C1444   1.402       .  A
C1440      C1441   1.420       .  A
C1441      H1450   1.078       .  S
C1441      C1442   1.406       .  A
C1442      H1451   1.083       .  S
C1442      C1443   1.402       .  A
C1443      C1444   1.405       .  A
C1444      H1452   1.085       .  S
C1453      C1454   1.401       .  A
C1453      C1458   1.397       .  A
C1454      H1467   1.084       .  S
C1454      C1455   1.394       .  A
C1455      H1468   1.078       .  S
C1455      C1456   1.412       .  A
C1456      C1462   1.431       .  A
C1456      C1457   1.425       .  A
C1457      C1459   1.398       .  A
C1457      C1458   1.409       .  A
C1458      H1469   1.085       .  S
C1459      H1470   1.084       .  S
C1459      C1460   1.391       .  A
C1460      H1471   1.084       .  S
C1460      C1461   1.401       .  A
C1461      C1462   1.420       .  A
C1461      C1466   1.404       .  A
C1462      C1463   1.418       .  A
C1463      H1472   1.078       .  S
C1463      C1464   1.400       .  A
C1464      H1473   1.083       .  S
C1464      C1465   1.401       .  A
C1465      C1466   1.405       .  A
C1466      H1474   1.084       .  S
C1475      C1476   1.401       .  A
C1475      C1480   1.401       .  A
C1476      H1489   1.084       .  S
C1476      C1477   1.394       .  A
C1477      H1490   1.077       .  S
C1477      C1478   1.412       .  A
C1478      C1484   1.430       .  A
C1478      C1479   1.425       .  A
C1479      C1481   1.400       .  A
C1479      C1480   1.410       .  A
C1480      H1491   1.085       .  S
C1481      H1492   1.084       .  S
C1481      C1482   1.392       .  A
C1482      H1493   1.084       .  S
C1482      C1483   1.401       .  A
C1483      C1484   1.420       .  A
C1483      C1488   1.404       .  A
C1484      C1485   1.418       .  A
C1485      H1494   1.077       .  S
C1485      C1486   1.399       .  A
C1486      H1495   1.083       .  S
C1486      C1487   1.396       .  A
C1487      C1488   1.403       .  A
C1488      H1496   1.085       .  S
C1497      C1498   1.401       .  A
C1497      C1502   1.404       .  A
C1498      H1511   1.083       .  S
C1498      C1499   1.402       .  A
C1499      H1512   1.078       .  S
C1499      C1500   1.417       .  A
C1500      C1506   1.433       .  A
C1500      C1501   1.421       .  A
C1501      C1503   1.401       .  A
C1501      C1502   1.407       .  A
C1502      H1513   1.085       .  S
C1503      H1514   1.084       .  S
C1503      C1504   1.392       .  A
C1504      H1515   1.084       .  S
C1504      C1505   1.400       .  A
C1505      C1506   1.423       .  A
C1505      C1510   1.410       .  A
C1506      C1507   1.414       .  A
C1507      H1516   1.078       .  S
C1507      C1508   1.398       .  A
C1508      H1517   1.084       .  S
C1508      C1509   1.400       .  A
C1509      C1510   1.400       .  A
C1510      H1518   1.085       .  S
C1519      C1520   1.400       .  A
C1519      C1524   1.406       .  A
C1520      H1533   1.083       .  S
C1520      C1521   1.400       .  A
C1521      H1534   1.077       .  S
C1521      C1522   1.418       .  A
C1522      C1528   1.431       .  A
C1522      C1523   1.419       .  A
C1523      C1525   1.401       .  A
C1523      C1524   1.405       .  A
C1524      H1535   1.084       .  S
C1525      H1536   1.084       .  S
C1525      C1526   1.391       .  A
C1526      H1537   1.084       .  S
C1526      C1527   1.399       .  A
C1527      C1528   1.426       .  A
C1527      C1532   1.411       .  A
C1528      C1529   1.411       .  A
C1529      H1538   1.077       .  S
C1529      C1530   1.393       .  A
C1530      H1539   1.084       .  S
C1530      C1531   1.402       .  A
C1531      C1532   1.399       .  A
C1532      H1540   1.084       .  S
C1541      C1542   1.397       .  A
C1541      C1546   1.402       .  A
C1542      H1555   1.083       .  S
C1542      C1543   1.400       .  A
C1543      H1556   1.078       .  S
C1543      C1544   1.419       .  A
C1544      C1550   1.430       .  A
C1544      C1545   1.419       .  A
C1545      C1547   1.400       .  A
C1545      C1546   1.401       .  A
C1546      H1557   1.085       .  S
C1547      H1558   1.084       .  S
C1547      C1548   1.390       .  A
C1548      H1559   1.084       .  S
C1548      C1549   1.398       .  A
C1549      C1550   1.425       .  A
C1549      C1554   1.409       .  A
C1550      C1551   1.410       .  A
C1551      H1560   1.078       .  S
C1551      C1552   1.393       .  A
C1552      H1561   1.083       .  S
C1552      C1553   1.406       .  A
C1553      C1554   1.400       .  A
C1554      H1562   1.084       .  S
C1563      C1564   1.406       .  A
C1563      C1568   1.400       .  A
C1564      H1577   1.083       .  S
C1564      C1565   1.397       .  A
C1565      H1578   1.078       .  S
C1565      C1566   1.411       .  A
C1566      C1572   1.434       .  A
C1566      C1567   1.426       .  A
C1567      C1569   1.398       .  A
C1567      C1568   1.410       .  A
C1568      H1579   1.084       .  S
C1569      H1580   1.084       .  S
C1569      C1570   1.390       .  A
C1570      H1581   1.084       .  S
C1570      C1571   1.400       .  A
C1571      C1572   1.419       .  A
C1571      C1576   1.402       .  A
C1572      C1573   1.421       .  A
C1573      H1582   1.078       .  S
C1573      C1574   1.405       .  A
C1574      H1583   1.083       .  S
C1574      C1575   1.399       .  A
C1575      C1576   1.403       .  A
C1576      H1584   1.085       .  S
C1585      C1586   1.400       .  A
C1585      C1590   1.401       .  A
C1586      H1599   1.084   1_554  S
C1586      C1587   1.394       .  A
C1587      H1600   1.078       .  S
C1587      C1588   1.411       .  A
C1588      C1594   1.431       .  A
C1588      C1589   1.425       .  A
C1589      C1591   1.400       .  A
C1589      C1590   1.412       .  A
C1590      H1601   1.084       .  S
C1591      H1602   1.084       .  S
C1591      C1592   1.393       .  A
C1592      H1603   1.084       .  S
C1592      C1593   1.402       .  A
C1593      C1594   1.420       .  A
C1593      C1598   1.407       .  A
C1594      C1595   1.417       .  A
C1595      H1604   1.078       .  S
C1595      C1596   1.399       .  A
C1596      H1605   1.083       .  S
C1596      C1597   1.400       .  A
C1597      C1598   1.407       .  A
C1598      H1606   1.084       .  S
C1607      C1608   1.396       .  A
C1607      C1612   1.408       .  A
C1608      H1621   1.083       .  S
C1608      C1609   1.401       .  A
C1609      H1622   1.077       .  S
C1609      C1610   1.420       .  A
C1610      C1616   1.430       .  A
C1610      C1611   1.417       .  A
C1611      C1613   1.402       .  A
C1611      C1612   1.403       .  A
C1612      H1623   1.085       .  S
C1613      H1624   1.084       .  S
C1613      C1614   1.393       .  A
C1614      H1625   1.084       .  S
C1614      C1615   1.399       .  A
C1615      C1616   1.426       .  A
C1615      C1620   1.413       .  A
C1616      C1617   1.408       .  A
C1617      H1626   1.077       .  S
C1617      C1618   1.390       .  A
C1618      H1627   1.083       .  S
C1618      C1619   1.406       .  A
C1619      C1620   1.402       .  A
C1620      H1628   1.084       .  S
C1629      C1630   1.400       .  A
C1629      C1634   1.405       .  A
C1630      H1643   1.083       .  S
C1630      C1631   1.402       .  A
C1631      H1644   1.078       .  S
C1631      C1632   1.419       .  A
C1632      C1638   1.432       .  A
C1632      C1633   1.420       .  A
C1633      C1635   1.400       .  A
C1633      C1634   1.403       .  A
C1634      H1645   1.085       .  S
C1635      H1646   1.084       .  S
C1635      C1636   1.390       .  A
C1636      H1647   1.084       .  S
C1636      C1637   1.398       .  A
C1637      C1638   1.426       .  A
C1637      C1642   1.409       .  A
C1638      C1639   1.412       .  A
C1639      H1648   1.078       .  S
C1639      C1640   1.395       .  A
C1640      H1649   1.084       .  S
C1640      C1641   1.402       .  A
C1641      C1642   1.398       .  A
C1642      H1650   1.084       .  S
C1651      C1652   1.399       .  A
C1651      C1656   1.401       .  A
C1652      H1665   1.084       .  S
C1652      C1653   1.398       .  A
C1653      H1666   1.078       .  S
C1653      C1654   1.414       .  A
C1654      C1660   1.431       .  A
C1654      C1655   1.422       .  A
C1655      C1657   1.400       .  A
C1655      C1656   1.408       .  A
C1656      H1667   1.085       .  S
C1657      H1668   1.084       .  S
C1657      C1658   1.393       .  A
C1658      H1669   1.084       .  S
C1658      C1659   1.401       .  A
C1659      C1660   1.422       .  A
C1659      C1664   1.408       .  A
C1660      C1661   1.415       .  A
C1661      H1670   1.078       .  S
C1661      C1662   1.399       .  A
C1662      H1671   1.083       .  S
C1662      C1663   1.400       .  A
C1663      C1664   1.404       .  A
C1664      H1672   1.085       .  S
C1673      C1674   1.401       .  A
C1673      C1678   1.401       .  A
C1674      H1687   1.084       .  S
C1674      C1675   1.393       .  A
C1675      H1688   1.077       .  S
C1675      C1676   1.412       .  A
C1676      C1682   1.432       .  A
C1676      C1677   1.425       .  A
C1677      C1679   1.400       .  A
C1677      C1678   1.413       .  A
C1678      H1689   1.084       .  S
C1679      H1690   1.084       .  S
C1679      C1680   1.394       .  A
C1680      H1691   1.084       .  S
C1680      C1681   1.402       .  A
C1681      C1682   1.420       .  A
C1681      C1686   1.409       .  A
C1682      C1683   1.416       .  A
C1683      H1692   1.077       .  S
C1683      C1684   1.397       .  A
C1684      H1693   1.083       .  S
C1684      C1685   1.400       .  A
C1685      C1686   1.407       .  A
C1686      H1694   1.084       .  S
C1695      C1696   1.398       .  A
C1695      C1700   1.405       .  A
C1696      H1709   1.083       .  S
C1696      C1697   1.406       .  A
C1697      H1710   1.077       .  S
C1697      C1698   1.421       .  A
C1698      C1704   1.436       .  A
C1698      C1699   1.419       .  A
C1699      C1701   1.401       .  A
C1699      C1700   1.404       .  A
C1700      H1711   1.085       .  S
C1701      H1712   1.084       .  S
C1701      C1702   1.391       .  A
C1702      H1713   1.084       .  S
C1702      C1703   1.399       .  A
C1703      C1704   1.426       .  A
C1703      C1708   1.412       .  A
C1704      C1705   1.412       .  A
C1705      H1714   1.077       .  S
C1705      C1706   1.397       .  A
C1706      H1715   1.083       .  S
C1706      C1707   1.406       .  A
C1707      C1708   1.403       .  A
C1708      H1716   1.084       .  S
C1717      C1718   1.401       .  A
C1717      C1722   1.405       .  A
C1718      H1731   1.083       .  S
C1718      C1719   1.401       .  A
C1719      H1732   1.077       .  S
C1719      C1720   1.418       .  A
C1720      C1726   1.432       .  A
C1720      C1721   1.420       .  A
C1721      C1723   1.401       .  A
C1721      C1722   1.405       .  A
C1722      H1733   1.085       .  S
C1723      H1734   1.084       .  S
C1723      C1724   1.391       .  A
C1724      H1735   1.084       .  S
C1724      C1725   1.399       .  A
C1725      C1726   1.425       .  A
C1725      C1730   1.410       .  A
C1726      C1727   1.413       .  A
C1727      H1736   1.077       .  S
C1727      C1728   1.395       .  A
C1728      H1737   1.084       .  S
C1728      C1729   1.401       .  A
C1729      C1730   1.398       .  A
C1730      H1738   1.085       .  S
C1739      C1740   1.405       .  A
C1739      C1744   1.400       .  A
C1740      H1753   1.083       .  S
C1740      C1741   1.397       .  A
C1741      H1754   1.078       .  S
C1741      C1742   1.412       .  A
C1742      C1748   1.432       .  A
C1742      C1743   1.425       .  A
C1743      C1745   1.398       .  A
C1743      C1744   1.406       .  A
C1744      H1755   1.084       .  S
C1745      H1756   1.084       .  S
C1745      C1746   1.388       .  A
C1746      H1757   1.084       .  S
C1746      C1747   1.399       .  A
C1747      C1748   1.420       .  A
C1747      C1752   1.400       .  A
C1748      C1749   1.420       .  A
C1749      H1758   1.078       .  S
C1749      C1750   1.403       .  A
C1750      H1759   1.083       .  S
C1750      C1751   1.397       .  A
C1751      C1752   1.400       .  A
C1752      H1760   1.085       .  S
C1761      C1762   1.399       .  A
C1761      C1766   1.407       .  A
C1762      H1775   1.083       .  S
C1762      C1763   1.407       .  A
C1763      H1776   1.077       .  S
C1763      C1764   1.423       .  A
C1764      C1770   1.433       .  A
C1764      C1765   1.417       .  A
C1765      C1767   1.401       .  A
C1765      C1766   1.398       .  A
C1766      H1777   1.085       .  S
C1767      H1778   1.084       .  S
C1767      C1768   1.388       .  A
C1768      H1779   1.084       .  S
C1768      C1769   1.397       .  A
C1769      C1770   1.427       .  A
C1769      C1774   1.410       .  A
C1770      C1771   1.409       .  A
C1771      H1780   1.077       .  S
C1771      C1772   1.394       .  A
C1772      H1781   1.083       .  S
C1772      C1773   1.408       .  A
C1773      C1774   1.399       .  A
C1774      H1782   1.084       .  S
C1783      C1784   1.398       .  A
C1783      C1788   1.407       .  A
C1784      H1797   1.083       .  S
C1784      C1785   1.399       .  A
C1785      H1798   1.077       .  S
C1785      C1786   1.417       .  A
C1786      C1792   1.432       .  A
C1786      C1787   1.420       .  A
C1787      C1789   1.402       .  A
C1787      C1788   1.409       .  A
C1788      H1799   1.085       .  S
C1789      H1800   1.084       .  S
C1789      C1790   1.395       .  A
C1790      H1801   1.084       .  S
C1790      C1791   1.401       .  A
C1791      C1792   1.424       .  A
C1791      C1796   1.413       .  A
C1792      C1793   1.412       .  A
C1793      H1802   1.078       .  S
C1793      C1794   1.395       .  A
C1794      H1803   1.084       .  S
C1794      C1795   1.399       .  A
C1795      C1796   1.402       .  A
C1796      H1804   1.084       .  S
C1805      C1806   1.404       .  A
C1805      C1810   1.400       .  A
C1806      H1819   1.083       .  S
C1806      C1807   1.398       .  A
C1807      H1820   1.078       .  S
C1807      C1808   1.413       .  A
C1808      C1814   1.434       .  A
C1808      C1809   1.426       .  A
C1809      C1811   1.398       .  A
C1809      C1810   1.409       .  A
C1810      H1821   1.084       .  S
C1811      H1822   1.084       .  S
C1811      C1812   1.389       .  A
C1812      H1823   1.084       .  S
C1812      C1813   1.400       .  A
C1813      C1814   1.420       .  A
C1813      C1818   1.402       .  A
C1814      C1815   1.421       .  A
C1815      H1824   1.078       .  S
C1815      C1816   1.405       .  A
C1816      H1825   1.083       .  S
C1816      C1817   1.398       .  A
C1817      C1818   1.401       .  A
C1818      H1826   1.085       .  S
C1827      C1828   1.399       .  A
C1827      C1832   1.399       .  A
C1828      H1841   1.084       .  S
C1828      C1829   1.397       .  A
C1829      H1842   1.078       .  S
C1829      C1830   1.414       .  A
C1830      C1836   1.432       .  A
C1830      C1831   1.424       .  A
C1831      C1833   1.399       .  A
C1831      C1832   1.408       .  A
C1832      H1843   1.085       .  S
C1833      H1844   1.084       .  S
C1833      C1834   1.391       .  A
C1834      H1845   1.084       .  S
C1834      C1835   1.400       .  A
C1835      C1836   1.421       .  A
C1835      C1840   1.405       .  A
C1836      C1837   1.417       .  A
C1837      H1846   1.078       .  S
C1837      C1838   1.401       .  A
C1838      H1847   1.083       .  S
C1838      C1839   1.400       .  A
C1839      C1840   1.404       .  A
C1840      H1848   1.085       .  S
C1849      C1850   1.405       .  A
C1849      C1854   1.401       .  A
C1850      H1863   1.083       .  S
C1850      C1851   1.395       .  A
C1851      H1864   1.078       .  S
C1851      C1852   1.411       .  A
C1852      C1858   1.432       .  A
C1852      C1853   1.425       .  A
C1853      C1855   1.399       .  A
C1853      C1854   1.409       .  A
C1854      H1865   1.084       .  S
C1855      H1866   1.084       .  S
C1855      C1856   1.390       .  A
C1856      H1867   1.084       .  S
C1856      C1857   1.400       .  A
C1857      C1858   1.419       .  A
C1857      C1862   1.401       .  A
C1858      C1859   1.420       .  A
C1859      H1868   1.078       .  S
C1859      C1860   1.403       .  A
C1860      H1869   1.083       .  S
C1860      C1861   1.396       .  A
C1861      C1862   1.403       .  A
C1862      H1870   1.085   1_545  S
C1871      C1872   1.406       .  A
C1871      C1876   1.401       .  A
C1872      H1885   1.083       .  S
C1872      C1873   1.392       .  A
C1873      H1886   1.078       .  S
C1873      C1874   1.408       .  A
C1874      C1880   1.431       .  A
C1874      C1875   1.427       .  A
C1875      C1877   1.399       .  A
C1875      C1876   1.412       .  A
C1876      H1887   1.084       .  S
C1877      H1888   1.084       .  S
C1877      C1878   1.391       .  A
C1878      H1889   1.084       .  S
C1878      C1879   1.402       .  A
C1879      C1880   1.417       .  A
C1879      C1884   1.401       .  A
C1880      C1881   1.421       .  A
C1881      H1890   1.078       .  S
C1881      C1882   1.403       .  A
C1882      H1891   1.083       .  S
C1882      C1883   1.397       .  A
C1883      C1884   1.407       .  A
C1884      H1892   1.085       .  S
C1893      C1894   1.399       .  A
C1893      C1898   1.409       .  A
C1894      H1907   1.083       .  S
C1894      C1895   1.402       .  A
C1895      H1908   1.077       .  S
C1895      C1896   1.420       .  A
C1896      C1902   1.431       .  A
C1896      C1897   1.417       .  A
C1897      C1899   1.402       .  A
C1897      C1898   1.403       .  A
C1898      H1909   1.084       .  S
C1899      H1910   1.084       .  S
C1899      C1900   1.392       .  A
C1900      H1911   1.084       .  S
C1900      C1901   1.399       .  A
C1901      C1902   1.426       .  A
C1901      C1906   1.413       .  A
C1902      C1903   1.408       .  A
C1903      H1912   1.077       .  S
C1903      C1904   1.391       .  A
C1904      H1913   1.083       .  S
C1904      C1905   1.406       .  A
C1905      C1906   1.401       .  A
C1906      H1914   1.084       .  S
C1915      C1916   1.400       .  A
C1915      C1920   1.408       .  A
C1916      H1929   1.083       .  S
C1916      C1917   1.401       .  A
C1917      H1930   1.077       .  S
C1917      C1918   1.419       .  A
C1918      C1924   1.432       .  A
C1918      C1919   1.419       .  A
C1919      C1921   1.401       .  A
C1919      C1920   1.403       .  A
C1920      H1931   1.084       .  S
C1921      H1932   1.084       .  S
C1921      C1922   1.391       .  A
C1922      H1933   1.084       .  S
C1922      C1923   1.398       .  A
C1923      C1924   1.426       .  A
C1923      C1928   1.411       .  A
C1924      C1925   1.410       .  A
C1925      H1934   1.077       .  S
C1925      C1926   1.393       .  A
C1926      H1935   1.084       .  S
C1926      C1927   1.404       .  A
C1927      C1928   1.400       .  A
C1928      H1936   1.084       .  S
C1937      C1938   1.407       .  A
C1937      C1942   1.400       .  A
C1938      H1951   1.083       .  S
C1938      C1939   1.400       .  A
C1939      H1952   1.078       .  S
C1939      C1940   1.413       .  A
C1940      C1946   1.435       .  A
C1940      C1941   1.425       .  A
C1941      C1943   1.397       .  A
C1941      C1942   1.407       .  A
C1942      H1953   1.084       .  S
C1943      H1954   1.084       .  S
C1943      C1944   1.387       .  A
C1944      H1955   1.084       .  S
C1944      C1945   1.399       .  A
C1945      C1946   1.420       .  A
C1945      C1950   1.400       .  A
C1946      C1947   1.421       .  A
C1947      H1956   1.078       .  S
C1947      C1948   1.407       .  A
C1948      H1957   1.083       .  S
C1948      C1949   1.400       .  A
C1949      C1950   1.403       .  A
C1950      H1958   1.085       .  S
C1959      C1960   1.405       .  A
C1959      C1964   1.398       .  A
C1960      H1973   1.084       .  S
C1960      C1961   1.402       .  A
C1961      H1974   1.078       .  S
C1961      C1962   1.415       .  A
C1962      C1968   1.434       .  A
C1962      C1963   1.425       .  A
C1963      C1965   1.397       .  A
C1963      C1964   1.403       .  A
C1964      H1975   1.085       .  S
C1965      H1976   1.084       .  S
C1965      C1966   1.385       .  A
C1966      H1977   1.084       .  S
C1966      C1967   1.398       .  A
C1967      C1968   1.421       .  A
C1967      C1972   1.399       .  A
C1968      C1969   1.420       .  A
C1969      H1978   1.078       .  S
C1969      C1970   1.406       .  A
C1970      H1979   1.083   1_545  S
C1970      C1971   1.399       .  A
C1971      C1972   1.398       .  A
C1972      H1980   1.086       .  S
C1981      C1982   1.400       .  A
C1981      C1986   1.408       .  A
C1982      H1995   1.083       .  S
C1982      C1983   1.401       .  A
C1983      H1996   1.078       .  S
C1983      C1984   1.419       .  A
C1984      C1990   1.431       .  A
C1984      C1985   1.419       .  A
C1985      C1987   1.402       .  A
C1985      C1986   1.406       .  A
C1986      H1997   1.084       .  S
C1987      H1998   1.084       .  S
C1987      C1988   1.393       .  A
C1988      H1999   1.084       .  S
C1988      C1989   1.399       .  A
C1989      C1990   1.426       .  A
C1989      C1994   1.413       .  A
C1990      C1991   1.410       .  A
C1991      H2000   1.078       .  S
C1991      C1992   1.392       .  A
C1992      H2001   1.084       .  S
C1992      C1993   1.402       .  A
C1993      C1994   1.400       .  A
C1994      H2002   1.084       .  S
C2003      C2004   1.401       .  A
C2003      C2008   1.398       .  A
C2004      H2017   1.084       .  S
C2004      C2005   1.397       .  A
C2005      H2018   1.077       .  S
C2005      C2006   1.413       .  A
C2006      C2012   1.434       .  A
C2006      C2007   1.426       .  A
C2007      C2009   1.398       .  A
C2007      C2008   1.410       .  A
C2008      H2019   1.085       .  S
C2009      H2020   1.084       .  S
C2009      C2010   1.389       .  A
C2010      H2021   1.084       .  S
C2010      C2011   1.400       .  A
C2011      C2012   1.420       .  A
C2011      C2016   1.403       .  A
C2012      C2013   1.419       .  A
C2013      H2022   1.077       .  S
C2013      C2014   1.403       .  A
C2014      H2023   1.083       .  S
C2014      C2015   1.401       .  A
C2015      C2016   1.406       .  A
C2016      H2024   1.084       .  S
C2025      C2026   1.405       .  A
C2025      C2030   1.400       .  A
C2026      H2039   1.084       .  S
C2026      C2027   1.396       .  A
C2027      H2040   1.078       .  S
C2027      C2028   1.411       .  A
C2028      C2034   1.434       .  A
C2028      C2029   1.427       .  A
C2029      C2031   1.398       .  A
C2029      C2030   1.411       .  A
C2030      H2041   1.084       .  S
C2031      H2042   1.084       .  S
C2031      C2032   1.390       .  A
C2032      H2043   1.084       .  S
C2032      C2033   1.401       .  A
C2033      C2034   1.418       .  A
C2033      C2038   1.401       .  A
C2034      C2035   1.422       .  A
C2035      H2044   1.078       .  S
C2035      C2036   1.406       .  A
C2036      H2045   1.083       .  S
C2036      C2037   1.397       .  A
C2037      C2038   1.406       .  A
C2038      H2046   1.085       .  S
C2047      C2048   1.403       .  A
C2047      C2052   1.407       .  A
C2048      H2061   1.083       .  S
C2048      C2049   1.408       .  A
C2049      H2062   1.078       .  S
C2049      C2050   1.420       .  A
C2050      C2056   1.438       .  A
C2050      C2051   1.420       .  A
C2051      C2053   1.400       .  A
C2051      C2052   1.405       .  A
C2052      H2063   1.085       .  S
C2053      H2064   1.084       .  S
C2053      C2054   1.389       .  A
C2054      H2065   1.084       .  S
C2054      C2055   1.398       .  A
C2055      C2056   1.426       .  A
C2055      C2060   1.410       .  A
C2056      C2057   1.415       .  A
C2057      H2066   1.078       .  S
C2057      C2058   1.402       .  A
C2058      H2067   1.084       .  S
C2058      C2059   1.402       .  A
C2059      C2060   1.398       .  A
C2060      H2068   1.085       .  S
C2069      C2070   1.401       .  A
C2069      C2074   1.407       .  A
C2070      H2083   1.083       .  S
C2070      C2071   1.403       .  A
C2071      H2084   1.077       .  S
C2071      C2072   1.419       .  A
C2072      C2078   1.435       .  A
C2072      C2073   1.420       .  A
C2073      C2075   1.401       .  A
C2073      C2074   1.406       .  A
C2074      H2085   1.084       .  S
C2075      H2086   1.084       .  S
C2075      C2076   1.391       .  A
C2076      H2087   1.084       .  S
C2076      C2077   1.398       .  A
C2077      C2078   1.426       .  A
C2077      C2082   1.413       .  A
C2078      C2079   1.412       .  A
C2079      H2088   1.077       .  S
C2079      C2080   1.395       .  A
C2080      H2089   1.084       .  S
C2080      C2081   1.403       .  A
C2081      C2082   1.398       .  A
C2082      H2090   1.084       .  S
C2091      C2092   1.399       .  A
C2091      C2096   1.408       .  A
C2092      H2105   1.083       .  S
C2092      C2093   1.402       .  A
C2093      H2106   1.077       .  S
C2093      C2094   1.419       .  A
C2094      C2100   1.435       .  A
C2094      C2095   1.420       .  A
C2095      C2097   1.402       .  A
C2095      C2096   1.409       .  A
C2096      H2107   1.085       .  S
C2097      H2108   1.084       .  S
C2097      C2098   1.395       .  A
C2098      H2109   1.084       .  S
C2098      C2099   1.400       .  A
C2099      C2100   1.426       .  A
C2099      C2104   1.417       .  A
C2100      C2101   1.411       .  A
C2101      H2110   1.077       .  S
C2101      C2102   1.394       .  A
C2102      H2111   1.084       .  S
C2102      C2103   1.402       .  A
C2103      C2104   1.402       .  A
C2104      H2112   1.084   1_455  S
C2113      C2114   1.403       .  A
C2113      C2118   1.408       .  A
C2114      H2127   1.083       .  S
C2114      C2115   1.403       .  A
C2115      H2128   1.078       .  S
C2115      C2116   1.417       .  A
C2116      C2122   1.440       .  A
C2116      C2117   1.422       .  A
C2117      C2119   1.402       .  A
C2117      C2118   1.416       .  A
C2118      H2129   1.084       .  S
C2119      H2130   1.084       .  S
C2119      C2120   1.396       .  A
C2120      H2131   1.084       .  S
C2120      C2121   1.402       .  A
C2121      C2122   1.424       .  A
C2121      C2126   1.418       .  A
C2122      C2123   1.415       .  A
C2123      H2132   1.078       .  S
C2123      C2124   1.401       .  A
C2124      H2133   1.083       .  S
C2124      C2125   1.404       .  A
C2125      C2126   1.407       .  A
C2126      H2134   1.084       .  S
C2135      C2136   1.402       .  A
C2135      C2140   1.405       .  A
C2136      H2149   1.083       .  S
C2136      C2137   1.404       .  A
C2137      H2150   1.078       .  S
C2137      C2138   1.417       .  A
C2138      C2144   1.439       .  A
C2138      C2139   1.423       .  A
C2139      C2141   1.401       .  A
C2139      C2140   1.413       .  A
C2140      H2151   1.084       .  S
C2141      H2152   1.084       .  S
C2141      C2142   1.394       .  A
C2142      H2153   1.084       .  S
C2142      C2143   1.401       .  A
C2143      C2144   1.423       .  A
C2143      C2148   1.414       .  A
C2144      C2145   1.416       .  A
C2145      H2154   1.078       .  S
C2145      C2146   1.403       .  A
C2146      H2155   1.083       .  S
C2146      C2147   1.404       .  A
C2147      C2148   1.406       .  A
C2148      H2156   1.084       .  S
C2157      C2158   1.402       .  A
C2157      C2162   1.404       .  A
C2158      H2171   1.083       .  S
C2158      C2159   1.403       .  A
C2159      H2172   1.078       .  S
C2159      C2160   1.416       .  A
C2160      C2166   1.440       .  A
C2160      C2161   1.424       .  A
C2161      C2163   1.400       .  A
C2161      C2162   1.413       .  A
C2162      H2173   1.084       .  S
C2163      H2174   1.084       .  S
C2163      C2164   1.393       .  A
C2164      H2175   1.084       .  S
C2164      C2165   1.401       .  A
C2165      C2166   1.422       .  A
C2165      C2170   1.412       .  A
C2166      C2167   1.417       .  A
C2167      H2176   1.078       .  S
C2167      C2168   1.405       .  A
C2168      H2177   1.083       .  S
C2168      C2169   1.404       .  A
C2169      C2170   1.407       .  A
C2170      H2178   1.084       .  S
C2179      C2180   1.405       .  A
C2179      C2184   1.405       .  A
C2180      H2193   1.083       .  S
C2180      C2181   1.403       .  A
C2181      H2194   1.078       .  S
C2181      C2182   1.415       .  A
C2182      C2188   1.439       .  A
C2182      C2183   1.424       .  A
C2183      C2185   1.400       .  A
C2183      C2184   1.413       .  A
C2184      H2195   1.084       .  S
C2185      H2196   1.084       .  S
C2185      C2186   1.392       .  A
C2186      H2197   1.084       .  S
C2186      C2187   1.400       .  A
C2187      C2188   1.423       .  A
C2187      C2192   1.411       .  A
C2188      C2189   1.417       .  A
C2189      H2198   1.078       .  S
C2189      C2190   1.404       .  A
C2190      H2199   1.083       .  S
C2190      C2191   1.403       .  A
C2191      C2192   1.404       .  A
C2192      H2200   1.084       .  S
C2201      C2202   1.404       .  A
C2201      C2206   1.404       .  A
C2202      H2215   1.083       .  S
C2202      C2203   1.401       .  A
C2203      H2216   1.078       .  S
C2203      C2204   1.415       .  A
C2204      C2210   1.438       .  A
C2204      C2205   1.424       .  A
C2205      C2207   1.400       .  A
C2205      C2206   1.413       .  A
C2206      H2217   1.084       .  S
C2207      H2218   1.084       .  S
C2207      C2208   1.393       .  A
C2208      H2219   1.084       .  S
C2208      C2209   1.401       .  A
C2209      C2210   1.422       .  A
C2209      C2214   1.411       .  A
C2210      C2211   1.417       .  A
C2211      H2220   1.078       .  S
C2211      C2212   1.404       .  A
C2212      H2221   1.083       .  S
C2212      C2213   1.403       .  A
C2213      C2214   1.406       .  A
C2214      H2222   1.084       .  S
C2223      C2224   1.404       .  A
C2223      C2228   1.404       .  A
C2224      H2237   1.083       .  S
C2224      C2225   1.401       .  A
C2225      H2238   1.078       .  S
C2225      C2226   1.415       .  A
C2226      C2232   1.438       .  A
C2226      C2227   1.424       .  A
C2227      C2229   1.400       .  A
C2227      C2228   1.414       .  A
C2228      H2239   1.084       .  S
C2229      H2240   1.084       .  S
C2229      C2230   1.393       .  A
C2230      H2241   1.084       .  S
C2230      C2231   1.401       .  A
C2231      C2232   1.423       .  A
C2231      C2236   1.412       .  A
C2232      C2233   1.417       .  A
C2233      H2242   1.077       .  S
C2233      C2234   1.403       .  A
C2234      H2243   1.083       .  S
C2234      C2235   1.403       .  A
C2235      C2236   1.405       .  A
C2236      H2244   1.084       .  S
C2245      C2246   1.403       .  A
C2245      C2250   1.403       .  A
C2246      H2259   1.083       .  S
C2246      C2247   1.405       .  A
C2247      H2260   1.078       .  S
C2247      C2248   1.417       .  A
C2248      C2254   1.439       .  A
C2248      C2249   1.423       .  A
C2249      C2251   1.400       .  A
C2249      C2250   1.412       .  A
C2250      H2261   1.084       .  S
C2251      H2262   1.084       .  S
C2251      C2252   1.392       .  A
C2252      H2263   1.084       .  S
C2252      C2253   1.401       .  A
C2253      C2254   1.423       .  A
C2253      C2258   1.411       .  A
C2254      C2255   1.417       .  A
C2255      H2264   1.078       .  S
C2255      C2256   1.405       .  A
C2256      H2265   1.083       .  S
C2256      C2257   1.404       .  A
C2257      C2258   1.406       .  A
C2258      H2266   1.084       .  S
C2267      C2268   1.405       .  A
C2267      C2272   1.403   1_556  A
C2268      H2281   1.083       .  S
C2268      C2269   1.404       .  A
C2269      H2282   1.078       .  S
C2269      C2270   1.416       .  A
C2270      C2276   1.441       .  A
C2270      C2271   1.424   1_556  A
C2271      C2273   1.400       .  A
C2271      C2272   1.413       .  A
C2272      H2283   1.084       .  S
C2273      H2284   1.084       .  S
C2273      C2274   1.392       .  A
C2274      H2285   1.084       .  S
C2274      C2275   1.401       .  A
C2275      C2276   1.423   1_554  A
C2275      C2280   1.412       .  A
C2276      C2277   1.417       .  A
C2277      H2286   1.078       .  S
C2277      C2278   1.406       .  A
C2278      H2287   1.083       .  S
C2278      C2279   1.406       .  A
C2279      C2280   1.406   1_556  A
C2280      H2288   1.084       .  S
C2289      C2290   1.404   1_545  A
C2289      C2294   1.405       .  A
C2290      H2303   1.083       .  S
C2290      C2291   1.404       .  A
C2291      H2304   1.078       .  S
C2291      C2292   1.416       .  A
C2292      C2298   1.440       .  A
C2292      C2293   1.424   1_565  A
C2293      C2295   1.400       .  A
C2293      C2294   1.413       .  A
C2294      H2305   1.084       .  S
C2295      H2306   1.084       .  S
C2295      C2296   1.392       .  A
C2296      H2307   1.084       .  S
C2296      C2297   1.401       .  A
C2297      C2298   1.423   1_545  A
C2297      C2302   1.412       .  A
C2298      C2299   1.418       .  A
C2299      H2308   1.078       .  S
C2299      C2300   1.405       .  A
C2300      H2309   1.083       .  S
C2300      C2301   1.403       .  A
C2301      C2302   1.405   1_565  A
C2302      H2310   1.084       .  S
C2311      C2312   1.404       .  A
C2311      C2316   1.408   1_655  A
C2312      H2325   1.083       .  S
C2312      C2313   1.405       .  A
C2313      H2326   1.078       .  S
C2313      C2314   1.418       .  A
C2314      C2320   1.438       .  A
C2314      C2315   1.421   1_655  A
C2315      C2317   1.401       .  A
C2315      C2316   1.410       .  A
C2316      H2327   1.084       .  S
C2317      H2328   1.084       .  S
C2317      C2318   1.392       .  A
C2318      H2329   1.084       .  S
C2318      C2319   1.400       .  A
C2319      C2320   1.424   1_455  A
C2319      C2324   1.413       .  A
C2320      C2321   1.415       .  A
C2321      H2330   1.078       .  S
C2321      C2322   1.401       .  A
C2322      H2331   1.083       .  S
C2322      C2323   1.403       .  A
C2323      C2324   1.404   1_655  A
C2324      H2332   1.084       .  S
C2333      C2334   1.404       .  A
C2333      C2338   1.405       .  A
C2334      H2347   1.083       .  S
C2334      C2335   1.406       .  A
C2335      H2348   1.078       .  S
C2335      C2336   1.418       .  A
C2336      C2342   1.439       .  A
C2336      C2337   1.422       .  A
C2337      C2339   1.400       .  A
C2337      C2338   1.409       .  A
C2338      H2349   1.084       .  S
C2339      H2350   1.084       .  S
C2339      C2340   1.391       .  A
C2340      H2351   1.084       .  S
C2340      C2341   1.399       .  A
C2341      C2342   1.424       .  A
C2341      C2346   1.411       .  A
C2342      C2343   1.416       .  A
C2343      H2352   1.078       .  S
C2343      C2344   1.404       .  A
C2344      H2353   1.083       .  S
C2344      C2345   1.403       .  A
C2345      C2346   1.402       .  A
C2346      H2354   1.085       .  S
C2355      C2356   1.403       .  A
C2355      C2360   1.407       .  A
C2356      H2369   1.083       .  S
C2356      C2357   1.401       .  A
C2357      H2370   1.078       .  S
C2357      C2358   1.415       .  A
C2358      C2364   1.439       .  A
C2358      C2359   1.424       .  A
C2359      C2361   1.402       .  A
C2359      C2360   1.418       .  A
C2360      H2371   1.084       .  S
C2361      H2372   1.084       .  S
C2361      C2362   1.397       .  A
C2362      H2373   1.084       .  S
C2362      C2363   1.402       .  A
C2363      C2364   1.423       .  A
C2363      C2368   1.417       .  A
C2364      C2365   1.417       .  A
C2365      H2374   1.078       .  S
C2365      C2366   1.403       .  A
C2366      H2375   1.083       .  S
C2366      C2367   1.400       .  A
C2367      C2368   1.406       .  A
C2368      H2376   1.084       .  S
C2377      C2378   1.405   1_455  A
C2377      C2382   1.406       .  A
C2378      H2391   1.083       .  S
C2378      C2379   1.403       .  A
C2379      H2392   1.078       .  S
C2379      C2380   1.416       .  A
C2380      C2386   1.439       .  A
C2380      C2381   1.423   1_655  A
C2381      C2383   1.401       .  A
C2381      C2382   1.413       .  A
C2382      H2393   1.084       .  S
C2383      H2394   1.084       .  S
C2383      C2384   1.393       .  A
C2384      H2395   1.084       .  S
C2384      C2385   1.400       .  A
C2385      C2386   1.423   1_455  A
C2385      C2390   1.412       .  A
C2386      C2387   1.417       .  A
C2387      H2396   1.078       .  S
C2387      C2388   1.403       .  A
C2388      H2397   1.083       .  S
C2388      C2389   1.403       .  A
C2389      C2390   1.404   1_655  A
C2390      H2398   1.084       .  S
C2399      C2400   1.401       .  A
C2399      C2404   1.407       .  A
C2400      H2413   1.083       .  S
C2400      C2401   1.403       .  A
C2401      H2414   1.078       .  S
C2401      C2402   1.418       .  A
C2402      C2408   1.434       .  A
C2402      C2403   1.420       .  A
C2403      C2405   1.401       .  A
C2403      C2404   1.406       .  A
C2404      H2415   1.085       .  S
C2405      H2416   1.084       .  S
C2405      C2406   1.393       .  A
C2406      H2417   1.084       .  S
C2406      C2407   1.400       .  A
C2407      C2408   1.424       .  A
C2407      C2412   1.411       .  A
C2408      C2409   1.413       .  A
C2409      H2418   1.078       .  S
C2409      C2410   1.398       .  A
C2410      H2419   1.084       .  S
C2410      C2411   1.401   1_565  A
C2411      C2412   1.402   1_545  A
C2412      H2420   1.085   1_565  S
C2421      C2422   1.403       .  A
C2421      C2426   1.400       .  A
C2422      H2435   1.084       .  S
C2422      C2423   1.401       .  A
C2423      H2436   1.078       .  S
C2423      C2424   1.415       .  A
C2424      C2430   1.436       .  A
C2424      C2425   1.425       .  A
C2425      C2427   1.398       .  A
C2425      C2426   1.407       .  A
C2426      H2437   1.085       .  S
C2427      H2438   1.084       .  S
C2427      C2428   1.389       .  A
C2428      H2439   1.084       .  S
C2428      C2429   1.399       .  A
C2429      C2430   1.422       .  A
C2429      C2434   1.404       .  A
C2430      C2431   1.419       .  A
C2431      H2440   1.078       .  S
C2431      C2432   1.405       .  A
C2432      H2441   1.083       .  S
C2432      C2433   1.399       .  A
C2433      C2434   1.400       .  A
C2434      H2442   1.085       .  S
C2443      C2444   1.397       .  A
C2443      C2448   1.404       .  A
C2444      H2457   1.083       .  S
C2444      C2445   1.404       .  A
C2445      H2458   1.078       .  S
C2445      C2446   1.422       .  A
C2446      C2452   1.432       .  A
C2446      C2447   1.418       .  A
C2447      C2449   1.401       .  A
C2447      C2448   1.399       .  A
C2448      H2459   1.085       .  S
C2449      H2460   1.084       .  S
C2449      C2450   1.389       .  A
C2450      H2461   1.084       .  S
C2450      C2451   1.398       .  A
C2451      C2452   1.427       .  A
C2451      C2456   1.410       .  A
C2452      C2453   1.409       .  A
C2453      H2462   1.078       .  S
C2453      C2454   1.393       .  A
C2454      H2463   1.083       .  S
C2454      C2455   1.407       .  A
C2455      C2456   1.400       .  A
C2456      H2464   1.084       .  S
C2465      C2466   1.398       .  A
C2465      C2470   1.407       .  A
C2466      H2479   1.083       .  S
C2466      C2467   1.406       .  A
C2467      H2480   1.077       .  S
C2467      C2468   1.423       .  A
C2468      C2474   1.433       .  A
C2468      C2469   1.417       .  A
C2469      C2471   1.401       .  A
C2469      C2470   1.399       .  A
C2470      H2481   1.085       .  S
C2471      H2482   1.084       .  S
C2471      C2472   1.389       .  A
C2472      H2483   1.084       .  S
C2472      C2473   1.397       .  A
C2473      C2474   1.427       .  A
C2473      C2478   1.411       .  A
C2474      C2475   1.409       .  A
C2475      H2484   1.077       .  S
C2475      C2476   1.394       .  A
C2476      H2485   1.083       .  S
C2476      C2477   1.408       .  A
C2477      C2478   1.400       .  A
C2478      H2486   1.084       .  S
C2487      C2488   1.406       .  A
C2487      C2492   1.402       .  A
C2488      H2501   1.083       .  S
C2488      C2489   1.397       .  A
C2489      H2502   1.078       .  S
C2489      C2490   1.412       .  A
C2490      C2496   1.433       .  A
C2490      C2491   1.425       .  A
C2491      C2493   1.399       .  A
C2491      C2492   1.410       .  A
C2492      H2503   1.084       .  S
C2493      H2504   1.084       .  S
C2493      C2494   1.390       .  A
C2494      H2505   1.084       .  S
C2494      C2495   1.400       .  A
C2495      C2496   1.420       .  A
C2495      C2500   1.403       .  A
C2496      C2497   1.420       .  A
C2497      H2506   1.078       .  S
C2497      C2498   1.404       .  A
C2498      H2507   1.083       .  S
C2498      C2499   1.398       .  A
C2499      C2500   1.402       .  A
C2500      H2508   1.085       .  S
C2509      C2510   1.403       .  A
C2509      C2514   1.401       .  A
C2510      H2523   1.084       .  S
C2510      C2511   1.391       .  A
C2511      H2524   1.078       .  S
C2511      C2512   1.410       .  A
C2512      C2518   1.428       .  A
C2512      C2513   1.425       .  A
C2513      C2515   1.400       .  A
C2513      C2514   1.411       .  A
C2514      H2525   1.084       .  S
C2515      H2526   1.084       .  S
C2515      C2516   1.393       .  A
C2516      H2527   1.084       .  S
C2516      C2517   1.402       .  A
C2517      C2518   1.418       .  A
C2517      C2522   1.403       .  A
C2518      C2519   1.418       .  A
C2519      H2528   1.078       .  S
C2519      C2520   1.399   1_565  A
C2520      H2529   1.083       .  S
C2520      C2521   1.397   1_545  A
C2521      C2522   1.406       .  A
C2522      H2530   1.085       .  S
C2531      C2532   1.401       .  A
C2531      C2536   1.398       .  A
C2532      H2545   1.084       .  S
C2532      C2533   1.394       .  A
C2533      H2546   1.077       .  S
C2533      C2534   1.412       .  A
C2534      C2540   1.429       .  A
C2534      C2535   1.425       .  A
C2535      C2537   1.398       .  A
C2535      C2536   1.406       .  A
C2536      H2547   1.085       .  S
C2537      H2548   1.084       .  S
C2537      C2538   1.388       .  A
C2538      H2549   1.084       .  S
C2538      C2539   1.400       .  A
C2539      C2540   1.420       .  A
C2539      C2544   1.399       .  A
C2540      C2541   1.419       .  A
C2541      H2550   1.077       .  S
C2541      C2542   1.401       .  A
C2542      H2551   1.083       .  S
C2542      C2543   1.396       .  A
C2543      C2544   1.401       .  A
C2544      H2552   1.085       .  S
C2553      C2554   1.397       .  A
C2553      C2558   1.402       .  A
C2554      H2567   1.083       .  S
C2554      C2555   1.401       .  A
C2555      H2568   1.077       .  S
C2555      C2556   1.419       .  A
C2556      C2562   1.431       .  A
C2556      C2557   1.420       .  A
C2557      C2559   1.401       .  A
C2557      C2558   1.405       .  A
C2558      H2569   1.085       .  S
C2559      H2570   1.084       .  S
C2559      C2560   1.392       .  A
C2560      H2571   1.084       .  S
C2560      C2561   1.400       .  A
C2561      C2562   1.425       .  A
C2561      C2566   1.410       .  A
C2562      C2563   1.411       .  A
C2563      H2572   1.077       .  S
C2563      C2564   1.394       .  A
C2564      H2573   1.083       .  S
C2564      C2565   1.404       .  A
C2565      C2566   1.403       .  A
C2566      H2574   1.084       .  S
C2575      C2576   1.399       .  A
C2575      C2580   1.409       .  A
C2576      H2589   1.083       .  S
C2576      C2577   1.400       .  A
C2577      H2590   1.078       .  S
C2577      C2578   1.418       .  A
C2578      C2584   1.428       .  A
C2578      C2579   1.418       .  A
C2579      C2581   1.402       .  A
C2579      C2580   1.402       .  A
C2580      H2591   1.084       .  S
C2581      H2592   1.084       .  S
C2581      C2582   1.392       .  A
C2582      H2593   1.084       .  S
C2582      C2583   1.399       .  A
C2583      C2584   1.425       .  A
C2583      C2588   1.410       .  A
C2584      C2585   1.410       .  A
C2585      H2594   1.078       .  S
C2585      C2586   1.392       .  A
C2586      H2595   1.084       .  S
C2586      C2587   1.401       .  A
C2587      C2588   1.399       .  A
C2588      H2596   1.085       .  S
C2597      C2598   1.404   1_455  A
C2597      C2602   1.406       .  A
C2598      H2611   1.083       .  S
C2598      C2599   1.399       .  A
C2599      H2612   1.077       .  S
C2599      C2600   1.414   1_655  A
C2600      C2606   1.438       .  A
C2600      C2601   1.424       .  A
C2601      C2603   1.402       .  A
C2601      C2602   1.417       .  A
C2602      H2613   1.084       .  S
C2603      H2614   1.084       .  S
C2603      C2604   1.396       .  A
C2604      H2615   1.084       .  S
C2604      C2605   1.402       .  A
C2605      C2606   1.423       .  A
C2605      C2610   1.416       .  A
C2606      C2607   1.416   1_455  A
C2607      H2616   1.077       .  S
C2607      C2608   1.401       .  A
C2608      H2617   1.083       .  S
C2608      C2609   1.403   1_655  A
C2609      C2610   1.407       .  A
C2610      H2618   1.084       .  S
C2619      C2620   1.407       .  A
C2619      C2624   1.401       .  A
C2620      H2633   1.083       .  S
C2620      C2621   1.398       .  A
C2621      H2634   1.078       .  S
C2621      C2622   1.411       .  A
C2622      C2628   1.436       .  A
C2622      C2623   1.427       .  A
C2623      C2625   1.398       .  A
C2623      C2624   1.412       .  A
C2624      H2635   1.084       .  S
C2625      H2636   1.084       .  S
C2625      C2626   1.390       .  A
C2626      H2637   1.084       .  S
C2626      C2627   1.400       .  A
C2627      C2628   1.419       .  A
C2627      C2632   1.402       .  A
C2628      C2629   1.422       .  A
C2629      H2638   1.078       .  S
C2629      C2630   1.407       .  A
C2630      H2639   1.083       .  S
C2630      C2631   1.399       .  A
C2631      C2632   1.405       .  A
C2632      H2640   1.085       .  S
C2641      C2642   1.404   1_655  A
C2641      C2646   1.407       .  A
C2642      H2655   1.083       .  S
C2642      C2643   1.402       .  A
C2643      H2656   1.078       .  S
C2643      C2644   1.415   1_455  A
C2644      C2650   1.439       .  A
C2644      C2645   1.423       .  A
C2645      C2647   1.401       .  A
C2645      C2646   1.416       .  A
C2646      H2657   1.084       .  S
C2647      H2658   1.084       .  S
C2647      C2648   1.395       .  A
C2648      H2659   1.084       .  S
C2648      C2649   1.401       .  A
C2649      C2650   1.423       .  A
C2649      C2654   1.414       .  A
C2650      C2651   1.416   1_655  A
C2651      H2660   1.078       .  S
C2651      C2652   1.403       .  A
C2652      H2661   1.083       .  S
C2652      C2653   1.403   1_455  A
C2653      C2654   1.406       .  A
C2654      H2662   1.084       .  S
C2663      C2664   1.401       .  A
C2663      C2668   1.401       .  A
C2664      H2677   1.084   1_455  S
C2664      C2665   1.394       .  A
C2665      H2678   1.077       .  S
C2665      C2666   1.412       .  A
C2666      C2672   1.432       .  A
C2666      C2667   1.425       .  A
C2667      C2669   1.400       .  A
C2667      C2668   1.413       .  A
C2668      H2679   1.084   1_554  S
C2669      H2680   1.084       .  S
C2669      C2670   1.393       .  A
C2670      H2681   1.084       .  S
C2670      C2671   1.402       .  A
C2671      C2672   1.420       .  A
C2671      C2676   1.408       .  A
C2672      C2673   1.417       .  A
C2673      H2682   1.077       .  S
C2673      C2674   1.399       .  A
C2674      H2683   1.083       .  S
C2674      C2675   1.401       .  A
C2675      C2676   1.408       .  A
C2676      H2684   1.084       .  S
C2685      C2686   1.403   1_565  A
C2685      C2690   1.405       .  A
C2686      H2699   1.083       .  S
C2686      C2687   1.402       .  A
C2687      H2700   1.078       .  S
C2687      C2688   1.416       .  A
C2688      C2694   1.437       .  A
C2688      C2689   1.423   1_545  A
C2689      C2691   1.401       .  A
C2689      C2690   1.412       .  A
C2690      H2701   1.084       .  S
C2691      H2702   1.084       .  S
C2691      C2692   1.393       .  A
C2692      H2703   1.084       .  S
C2692      C2693   1.401       .  A
C2693      C2694   1.423   1_565  A
C2693      C2698   1.412       .  A
C2694      C2695   1.416       .  A
C2695      H2704   1.078       .  S
C2695      C2696   1.402       .  A
C2696      H2705   1.083       .  S
C2696      C2697   1.402       .  A
C2697      C2698   1.404   1_545  A
C2698      H2706   1.084       .  S
C2707      C2708   1.406       .  A
C2707      C2712   1.401       .  A
C2708      H2721   1.084       .  S
C2708      C2709   1.394       .  A
C2709      H2722   1.077       .  S
C2709      C2710   1.410       .  A
C2710      C2716   1.432       .  A
C2710      C2711   1.426       .  A
C2711      C2713   1.399       .  A
C2711      C2712   1.411       .  A
C2712      H2723   1.084       .  S
C2713      H2724   1.084       .  S
C2713      C2714   1.391       .  A
C2714      H2725   1.084       .  S
C2714      C2715   1.401       .  A
C2715      C2716   1.419       .  A
C2715      C2720   1.402       .  A
C2716      C2717   1.420       .  A
C2717      H2726   1.077       .  S
C2717      C2718   1.402       .  A
C2718      H2727   1.083       .  S
C2718      C2719   1.398       .  A
C2719      C2720   1.404       .  A
C2720      H2728   1.085       .  S
C2729      C2730   1.399       .  A
C2729      C2734   1.404       .  A
C2730      H2743   1.083       .  S
C2730      C2731   1.405       .  A
C2731      H2744   1.077       .  S
C2731      C2732   1.421       .  A
C2732      C2738   1.434       .  A
C2732      C2733   1.419       .  A
C2733      C2735   1.400       .  A
C2733      C2734   1.400       .  A
C2734      H2745   1.085       .  S
C2735      H2746   1.084       .  S
C2735      C2736   1.388       .  A
C2736      H2747   1.084       .  S
C2736      C2737   1.398       .  A
C2737      C2738   1.426       .  A
C2737      C2742   1.408       .  A
C2738      C2739   1.411       .  A
C2739      H2748   1.077       .  S
C2739      C2740   1.397       .  A
C2740      H2749   1.083       .  S
C2740      C2741   1.407       .  A
C2741      C2742   1.400       .  A
C2742      H2750   1.084       .  S
C2751      C2752   1.406   1_556  A
C2751      C2756   1.405       .  A
C2752      H2765   1.083       .  S
C2752      C2753   1.411       .  A
C2753      H2766   1.079       .  S
C2753      C2754   1.419   1_554  A
C2754      C2760   1.444       .  A
C2754      C2755   1.423       .  A
C2755      C2757   1.400       .  A
C2755      C2756   1.410       .  A
C2756      H2767   1.084       .  S
C2757      H2768   1.084       .  S
C2757      C2758   1.390       .  A
C2758      H2769   1.084       .  S
C2758      C2759   1.399       .  A
C2759      C2760   1.424       .  A
C2759      C2764   1.410       .  A
C2760      C2761   1.419   1_556  A
C2761      H2770   1.079       .  S
C2761      C2762   1.410       .  A
C2762      H2771   1.083       .  S
C2762      C2763   1.405   1_554  A
C2763      C2764   1.403       .  A
C2764      H2772   1.084       .  S
C2773      C2774   1.398       .  A
C2773      C2778   1.406       .  A
C2774      H2787   1.083   1_545  S
C2774      C2775   1.407       .  A
C2775      H2788   1.077       .  S
C2775      C2776   1.422       .  A
C2776      C2782   1.435       .  A
C2776      C2777   1.419       .  A
C2777      C2779   1.401       .  A
C2777      C2778   1.401       .  A
C2778      H2789   1.085   1_554  S
C2779      H2790   1.084   1_554  S
C2779      C2780   1.389       .  A
C2780      H2791   1.084       .  S
C2780      C2781   1.398       .  A
C2781      C2782   1.426       .  A
C2781      C2786   1.410       .  A
C2782      C2783   1.411       .  A
C2783      H2792   1.078       .  S
C2783      C2784   1.398       .  A
C2784      H2793   1.083       .  S
C2784      C2785   1.407       .  A
C2785      C2786   1.402       .  A
C2786      H2794   1.084       .  S
C2795      C2796   1.400       .  A
C2795      C2800   1.404       .  A
C2796      H2809   1.083       .  S
C2796      C2797   1.403       .  A
C2797      H2810   1.078       .  S
C2797      C2798   1.417       .  A
C2798      C2804   1.438       .  A
C2798      C2799   1.423       .  A
C2799      C2801   1.401       .  A
C2799      C2800   1.413       .  A
C2800      H2811   1.085       .  S
C2801      H2812   1.084       .  S
C2801      C2802   1.394       .  A
C2802      H2813   1.084       .  S
C2802      C2803   1.401       .  A
C2803      C2804   1.423       .  A
C2803      C2808   1.413       .  A
C2804      C2805   1.416       .  A
C2805      H2814   1.078   1_556  S
C2805      C2806   1.403       .  A
C2806      H2815   1.083   1_556  S
C2806      C2807   1.403       .  A
C2807      C2808   1.406       .  A
C2808      H2816   1.084       .  S
C2817      C2818   1.399       .  A
C2817      C2822   1.405       .  A
C2818      H2831   1.083       .  S
C2818      C2819   1.399       .  A
C2819      H2832   1.078       .  S
C2819      C2820   1.417       .  A
C2820      C2826   1.430       .  A
C2820      C2821   1.420       .  A
C2821      C2823   1.402       .  A
C2821      C2822   1.407       .  A
C2822      H2833   1.085       .  S
C2823      H2834   1.084       .  S
C2823      C2824   1.394       .  A
C2824      H2835   1.084       .  S
C2824      C2825   1.400       .  A
C2825      C2826   1.424       .  A
C2825      C2830   1.412       .  A
C2826      C2827   1.411       .  A
C2827      H2836   1.078       .  S
C2827      C2828   1.393       .  A
C2828      H2837   1.084       .  S
C2828      C2829   1.400       .  A
C2829      C2830   1.401       .  A
C2830      H2838   1.084       .  S
C2839      C2840   1.403       .  A
C2839      C2844   1.406   1_565  A
C2840      H2853   1.083       .  S
C2840      C2841   1.401       .  A
C2841      H2854   1.078       .  S
C2841      C2842   1.415       .  A
C2842      C2848   1.439       .  A
C2842      C2843   1.424   1_565  A
C2843      C2845   1.401       .  A
C2843      C2844   1.415       .  A
C2844      H2855   1.084       .  S
C2845      H2856   1.084       .  S
C2845      C2846   1.394       .  A
C2846      H2857   1.084       .  S
C2846      C2847   1.401       .  A
C2847      C2848   1.422   1_545  A
C2847      C2852   1.413       .  A
C2848      C2849   1.417       .  A
C2849      H2858   1.078       .  S
C2849      C2850   1.403       .  A
C2850      H2859   1.083       .  S
C2850      C2851   1.402   1_565  A
C2851      C2852   1.406       .  A
C2852      H2860   1.084       .  S
C2861      C2862   1.398       .  A
C2861      C2866   1.403       .  A
C2862      H2875   1.083   1_455  S
C2862      C2863   1.406       .  A
C2863      H2876   1.078       .  S
C2863      C2864   1.422       .  A
C2864      C2870   1.435       .  A
C2864      C2865   1.419       .  A
C2865      C2867   1.400       .  A
C2865      C2866   1.402       .  A
C2866      H2877   1.085   1_565  S
C2867      H2878   1.084       .  S
C2867      C2868   1.389       .  A
C2868      H2879   1.084       .  S
C2868      C2869   1.398       .  A
C2869      C2870   1.426       .  A
C2869      C2874   1.411       .  A
C2870      C2871   1.411       .  A
C2871      H2880   1.078       .  S
C2871      C2872   1.397       .  A
C2872      H2881   1.083       .  S
C2872      C2873   1.407       .  A
C2873      C2874   1.401       .  A
C2874      H2882   1.084       .  S
C2883      C2884   1.399       .  A
C2883      C2888   1.399       .  A
C2884      H2897   1.084       .  S
C2884      C2885   1.396       .  A
C2885      H2898   1.078       .  S
C2885      C2886   1.413       .  A
C2886      C2892   1.430       .  A
C2886      C2887   1.424       .  A
C2887      C2889   1.400       .  A
C2887      C2888   1.408       .  A
C2888      H2899   1.085       .  S
C2889      H2900   1.084       .  S
C2889      C2890   1.391       .  A
C2890      H2901   1.084       .  S
C2890      C2891   1.400       .  A
C2891      C2892   1.421       .  A
C2891      C2896   1.405       .  A
C2892      C2893   1.416       .  A
C2893      H2902   1.078       .  S
C2893      C2894   1.399       .  A
C2894      H2903   1.083       .  S
C2894      C2895   1.400       .  A
C2895      C2896   1.403       .  A
C2896      H2904   1.085       .  S
C2905      C2906   1.404       .  A
C2905      C2910   1.405   1_565  A
C2906      H2919   1.083       .  S
C2906      C2907   1.404       .  A
C2907      H2920   1.078       .  S
C2907      C2908   1.417       .  A
C2908      C2914   1.439       .  A
C2908      C2909   1.423   1_565  A
C2909      C2911   1.400       .  A
C2909      C2910   1.411       .  A
C2910      H2921   1.084       .  S
C2911      H2922   1.084       .  S
C2911      C2912   1.392       .  A
C2912      H2923   1.084       .  S
C2912      C2913   1.400       .  A
C2913      C2914   1.423   1_545  A
C2913      C2918   1.411       .  A
C2914      C2915   1.417       .  A
C2915      H2924   1.078       .  S
C2915      C2916   1.404       .  A
C2916      H2925   1.083       .  S
C2916      C2917   1.402       .  A
C2917      C2918   1.404   1_565  A
C2918      H2926   1.084       .  S
C2927      C2928   1.403       .  A
C2927      C2932   1.399       .  A
C2928      H2941   1.083       .  S
C2928      C2929   1.390       .  A
C2929      H2942   1.085       .  S
C2929      C2930   1.408       .  A
C2930      C2936   1.429       .  A
C2930      C2931   1.427       .  A
C2931      C2933   1.399       .  A
C2931      C2932   1.412       .  A
C2932      H2943   1.086       .  S
C2933      H2944   1.084       .  S
C2933      C2934   1.391       .  A
C2934      H2945   1.084       .  S
C2934      C2935   1.402       .  A
C2935      C2936   1.418       .  A
C2935      C2940   1.401       .  A
C2936      C2937   1.419       .  A
C2937      H2946   1.085       .  S
C2937      C2938   1.400       .  A
C2938      H2947   1.082       .  S
C2938      C2939   1.398       .  A
C2939      C2940   1.407       .  A
C2940      H2948   1.086       .  S
C2949      C2950   1.401       .  A
C2949      C2954   1.404       .  A
C2950      H2963   1.083       .  S
C2950      C2951   1.401       .  A
C2951      H2964   1.078       .  S
C2951      C2952   1.416       .  A
C2952      C2958   1.437       .  A
C2952      C2953   1.423       .  A
C2953      C2955   1.401       .  A
C2953      C2954   1.414       .  A
C2954      H2965   1.084       .  S
C2955      H2966   1.084       .  S
C2955      C2956   1.395       .  A
C2956      H2967   1.084       .  S
C2956      C2957   1.401       .  A
C2957      C2958   1.423       .  A
C2957      C2962   1.413       .  A
C2958      C2959   1.415       .  A
C2959      H2968   1.078       .  S
C2959      C2960   1.401       .  A
C2960      H2969   1.083       .  S
C2960      C2961   1.403       .  A
C2961      C2962   1.406       .  A
C2962      H2970   1.084       .  S
C2971      C2972   1.402       .  A
C2971      C2976   1.403       .  A
C2972      H2985   1.083       .  S
C2972      C2973   1.403       .  A
C2973      H2986   1.078       .  S
C2973      C2974   1.417       .  A
C2974      C2980   1.438       .  A
C2974      C2975   1.423       .  A
C2975      C2977   1.400       .  A
C2975      C2976   1.411       .  A
C2976      H2987   1.085       .  S
C2977      H2988   1.084       .  S
C2977      C2978   1.392       .  A
C2978      H2989   1.084       .  S
C2978      C2979   1.400       .  A
C2979      C2980   1.423       .  A
C2979      C2984   1.411       .  A
C2980      C2981   1.416       .  A
C2981      H2990   1.078       .  S
C2981      C2982   1.403       .  A
C2982      H2991   1.083       .  S
C2982      C2983   1.403       .  A
C2983      C2984   1.404       .  A
C2984      H2992   1.084       .  S
C2993      C2994   1.398       .  A
C2993      C2998   1.400       .  A
C2994      H3007   1.083       .  S
C2994      C2995   1.403       .  A
C2995      H3008   1.078       .  S
C2995      C2996   1.420       .  A
C2996      C3002   1.434       .  A
C2996      C2997   1.421       .  A
C2997      C2999   1.400       .  A
C2997      C2998   1.403       .  A
C2998      H3009   1.085       .  S
C2999      H3010   1.084       .  S
C2999      C3000   1.389       .  A
C3000      H3011   1.084       .  S
C3000      C3001   1.398       .  A
C3001      C3002   1.426       .  A
C3001      C3006   1.409       .  A
C3002      C3003   1.412       .  A
C3003      H3012   1.077       .  S
C3003      C3004   1.397       .  A
C3004      H3013   1.084       .  S
C3004      C3005   1.404       .  A
C3005      C3006   1.400       .  A
C3006      H3014   1.084       .  S
C3015      C3016   1.399       .  A
C3015      C3020   1.408       .  A
C3016      H3029   1.083       .  S
C3016      C3017   1.399       .  A
C3017      H3030   1.077       .  S
C3017      C3018   1.419       .  A
C3018      C3024   1.432       .  A
C3018      C3019   1.419       .  A
C3019      C3021   1.402       .  A
C3019      C3020   1.407       .  A
C3020      H3031   1.084       .  S
C3021      H3032   1.084       .  S
C3021      C3022   1.394       .  A
C3022      H3033   1.084       .  S
C3022      C3023   1.400       .  A
C3023      C3024   1.427       .  A
C3023      C3028   1.416       .  A
C3024      C3025   1.409       .  A
C3025      H3034   1.077       .  S
C3025      C3026   1.391       .  A
C3026      H3035   1.084       .  S
C3026      C3027   1.403       .  A
C3027      C3028   1.402       .  A
C3028      H3036   1.084       .  S
C3037      C3038   1.400       .  A
C3037      C3042   1.408       .  A
C3038      H3051   1.083       .  S
C3038      C3039   1.400       .  A
C3039      H3052   1.078       .  S
C3039      C3040   1.417       .  A
C3040      C3046   1.430       .  A
C3040      C3041   1.419       .  A
C3041      C3043   1.402       .  A
C3041      C3042   1.405       .  A
C3042      H3053   1.084       .  S
C3043      H3054   1.084       .  S
C3043      C3044   1.392       .  A
C3044      H3055   1.084       .  S
C3044      C3045   1.399       .  A
C3045      C3046   1.425       .  A
C3045      C3050   1.411       .  A
C3046      C3047   1.411       .  A
C3047      H3056   1.078       .  S
C3047      C3048   1.393       .  A
C3048      H3057   1.084       .  S
C3048      C3049   1.400       .  A
C3049      C3050   1.400       .  A
C3050      H3058   1.084   1_556  S
C3059      C3060   1.398       .  A
C3059      C3064   1.405       .  A
C3060      H3073   1.083       .  S
C3060      C3061   1.401       .  A
C3061      H3074   1.078       .  S
C3061      C3062   1.418       .  A
C3062      C3068   1.432       .  A
C3062      C3063   1.420       .  A
C3063      C3065   1.401       .  A
C3063      C3064   1.405       .  A
C3064      H3075   1.085       .  S
C3065      H3076   1.084       .  S
C3065      C3066   1.392       .  A
C3066      H3077   1.084       .  S
C3066      C3067   1.400       .  A
C3067      C3068   1.424       .  A
C3067      C3072   1.410       .  A
C3068      C3069   1.413       .  A
C3069      H3078   1.078       .  S
C3069      C3070   1.396       .  A
C3070      H3079   1.084       .  S
C3070      C3071   1.400       .  A
C3071      C3072   1.400       .  A
C3072      H3080   1.085       .  S
C3081      C3082   1.401       .  A
C3081      C3086   1.400       .  A
C3082      H3095   1.084       .  S
C3082      C3083   1.396       .  A
C3083      H3096   1.078       .  S
C3083      C3084   1.413       .  A
C3084      C3090   1.432       .  A
C3084      C3085   1.424       .  A
C3085      C3087   1.400       .  A
C3085      C3086   1.411       .  A
C3086      H3097   1.085       .  S
C3087      H3098   1.084       .  S
C3087      C3088   1.393       .  A
C3088      H3099   1.084       .  S
C3088      C3089   1.402       .  A
C3089      C3090   1.420       .  A
C3089      C3094   1.408       .  A
C3090      C3091   1.417       .  A
C3091      H3100   1.078       .  S
C3091      C3092   1.401       .  A
C3092      H3101   1.083       .  S
C3092      C3093   1.401       .  A
C3093      C3094   1.407       .  A
C3094      H3102   1.085       .  S
C3103      C3104   1.400       .  A
C3103      C3108   1.407       .  A
C3104      H3117   1.083       .  S
C3104      C3105   1.407       .  A
C3105      H3118   1.078       .  S
C3105      C3106   1.422       .  A
C3106      C3112   1.434       .  A
C3106      C3107   1.417       .  A
C3107      C3109   1.400       .  A
C3107      C3108   1.398       .  A
C3108      H3119   1.084       .  S
C3109      H3120   1.084       .  S
C3109      C3110   1.388       .  A
C3110      H3121   1.084       .  S
C3110      C3111   1.397       .  A
C3111      C3112   1.428       .  A
C3111      C3116   1.410       .  A
C3112      C3113   1.410       .  A
C3113      H3122   1.078       .  S
C3113      C3114   1.396       .  A
C3114      H3123   1.083       .  S
C3114      C3115   1.406       .  A
C3115      C3116   1.398       .  A
C3116      H3124   1.084       .  S
C3125      C3126   1.400       .  A
C3125      C3130   1.403       .  A
C3126      H3139   1.083       .  S
C3126      C3127   1.401       .  A
C3127      H3140   1.078       .  S
C3127      C3128   1.418       .  A
C3128      C3134   1.431       .  A
C3128      C3129   1.420       .  A
C3129      C3131   1.399       .  A
C3129      C3130   1.400       .  A
C3130      H3141   1.085       .  S
C3131      H3142   1.084       .  S
C3131      C3132   1.388       .  A
C3132      H3143   1.084       .  S
C3132      C3133   1.397       .  A
C3133      C3134   1.425       .  A
C3133      C3138   1.406       .  A
C3134      C3135   1.413       .  A
C3135      H3144   1.078       .  S
C3135      C3136   1.396       .  A
C3136      H3145   1.084       .  S
C3136      C3137   1.402       .  A
C3137      C3138   1.396       .  A
C3138      H3146   1.085       .  S
C3147      C3148   1.406       .  A
C3147      C3152   1.400       .  A
C3148      H3161   1.084       .  S
C3148      C3149   1.397       .  A
C3149      H3162   1.078       .  S
C3149      C3150   1.412       .  A
C3150      C3156   1.433       .  A
C3150      C3151   1.426       .  A
C3151      C3153   1.398       .  A
C3151      C3152   1.408       .  A
C3152      H3163   1.084       .  S
C3153      H3164   1.084       .  S
C3153      C3154   1.388       .  A
C3154      H3165   1.084       .  S
C3154      C3155   1.399       .  A
C3155      C3156   1.420       .  A
C3155      C3160   1.401       .  A
C3156      C3157   1.421       .  A
C3157      H3166   1.078       .  S
C3157      C3158   1.404       .  A
C3158      H3167   1.083   1_556  S
C3158      C3159   1.398       .  A
C3159      C3160   1.400       .  A
C3160      H3168   1.085       .  S
C3169      C3170   1.397       .  A
C3169      C3174   1.405       .  A
C3170      H3183   1.083       .  S
C3170      C3171   1.402       .  A
C3171      H3184   1.077       .  S
C3171      C3172   1.421       .  A
C3172      C3178   1.431       .  A
C3172      C3173   1.418       .  A
C3173      C3175   1.401       .  A
C3173      C3174   1.400       .  A
C3174      H3185   1.085       .  S
C3175      H3186   1.084       .  S
C3175      C3176   1.390       .  A
C3176      H3187   1.084       .  S
C3176      C3177   1.398       .  A
C3177      C3178   1.426       .  A
C3177      C3182   1.410       .  A
C3178      C3179   1.409       .  A
C3179      H3188   1.077       .  S
C3179      C3180   1.392       .  A
C3180      H3189   1.083       .  S
C3180      C3181   1.407       .  A
C3181      C3182   1.400       .  A
C3182      H3190   1.084       .  S
C3191      C3192   1.400       .  A
C3191      C3196   1.401       .  A
C3192      H3205   1.084       .  S
C3192      C3193   1.394       .  A
C3193      H3206   1.078       .  S
C3193      C3194   1.412       .  A
C3194      C3200   1.431       .  A
C3194      C3195   1.424       .  A
C3195      C3197   1.400       .  A
C3195      C3196   1.412       .  A
C3196      H3207   1.084       .  S
C3197      H3208   1.084       .  S
C3197      C3198   1.394       .  A
C3198      H3209   1.084       .  S
C3198      C3199   1.402       .  A
C3199      C3200   1.420       .  A
C3199      C3204   1.408       .  A
C3200      C3201   1.416       .  A
C3201      H3210   1.078       .  S
C3201      C3202   1.398       .  A
C3202      H3211   1.083       .  S
C3202      C3203   1.401       .  A
C3203      C3204   1.406       .  A
C3204      H3212   1.084       .  S
C3213      C3214   1.403       .  A
C3213      C3218   1.399       .  A
C3214      H3227   1.084       .  S
C3214      C3215   1.398       .  A
C3215      H3228   1.078       .  S
C3215      C3216   1.413       .  A
C3216      C3222   1.434       .  A
C3216      C3217   1.426       .  A
C3217      C3219   1.398       .  A
C3217      C3218   1.408       .  A
C3218      H3229   1.085       .  S
C3219      H3230   1.084       .  S
C3219      C3220   1.389       .  A
C3220      H3231   1.084       .  S
C3220      C3221   1.400       .  A
C3221      C3222   1.420       .  A
C3221      C3226   1.402       .  A
C3222      C3223   1.420       .  A
C3223      H3232   1.077       .  S
C3223      C3224   1.404       .  A
C3224      H3233   1.083       .  S
C3224      C3225   1.398       .  A
C3225      C3226   1.401       .  A
C3226      H3234   1.085       .  S
C3235      C3236   1.402       .  A
C3235      C3240   1.406       .  A
C3236      H3249   1.083       .  S
C3236      C3237   1.406       .  A
C3237      H3250   1.078       .  S
C3237      C3238   1.418       .  A
C3238      C3244   1.440       .  A
C3238      C3239   1.422       .  A
C3239      C3241   1.401       .  A
C3239      C3240   1.411       .  A
C3240      H3251   1.085       .  S
C3241      H3252   1.084       .  S
C3241      C3242   1.393       .  A
C3242      H3253   1.084       .  S
C3242      C3243   1.401       .  A
C3243      C3244   1.423       .  A
C3243      C3248   1.413       .  A
C3244      C3245   1.416       .  A
C3245      H3254   1.078       .  S
C3245      C3246   1.404       .  A
C3246      H3255   1.083       .  S
C3246      C3247   1.404       .  A
C3247      C3248   1.406       .  A
C3248      H3256   1.084       .  S
C3257      C3258   1.401       .  A
C3257      C3262   1.406   1_554  A
C3258      H3271   1.083       .  S
C3258      C3259   1.400       .  A
C3259      H3272   1.077       .  S
C3259      C3260   1.417       .  A
C3260      C3266   1.435       .  A
C3260      C3261   1.422   1_554  A
C3261      C3263   1.402       .  A
C3261      C3262   1.411       .  A
C3262      H3273   1.084       .  S
C3263      H3274   1.084       .  S
C3263      C3264   1.394       .  A
C3264      H3275   1.084       .  S
C3264      C3265   1.401       .  A
C3265      C3266   1.424   1_556  A
C3265      C3270   1.415       .  A
C3266      C3267   1.413       .  A
C3267      H3276   1.077       .  S
C3267      C3268   1.397       .  A
C3268      H3277   1.083       .  S
C3268      C3269   1.403   1_554  A
C3269      C3270   1.405       .  A
C3270      H3278   1.084       .  S
C3279      C3280   1.396       .  A
C3279      C3284   1.401       .  A
C3280      H3293   1.083       .  S
C3280      C3281   1.401       .  A
C3281      H3294   1.077       .  S
C3281      C3282   1.420       .  A
C3282      C3288   1.429       .  A
C3282      C3283   1.419       .  A
C3283      C3285   1.400       .  A
C3283      C3284   1.399       .  A
C3284      H3295   1.085   1_556  S
C3285      H3296   1.084       .  S
C3285      C3286   1.389       .  A
C3286      H3297   1.084       .  S
C3286      C3287   1.398       .  A
C3287      C3288   1.425       .  A
C3287      C3292   1.407       .  A
C3288      C3289   1.411       .  A
C3289      H3298   1.077       .  S
C3289      C3290   1.394       .  A
C3290      H3299   1.084       .  S
C3290      C3291   1.403       .  A
C3291      C3292   1.400       .  A
C3292      H3300   1.085       .  S
C3301      C3302   1.403       .  A
C3301      C3306   1.400       .  A
C3302      H3315   1.084       .  S
C3302      C3303   1.393       .  A
C3303      H3316   1.078       .  S
C3303      C3304   1.410       .  A
C3304      C3310   1.433       .  A
C3304      C3305   1.427       .  A
C3305      C3307   1.399       .  A
C3305      C3306   1.414       .  A
C3306      H3317   1.084   1_554  S
C3307      H3318   1.084       .  S
C3307      C3308   1.392       .  A
C3308      H3319   1.084       .  S
C3308      C3309   1.402       .  A
C3309      C3310   1.419       .  A
C3309      C3314   1.405       .  A
C3310      C3311   1.419       .  A
C3311      H3320   1.077       .  S
C3311      C3312   1.402       .  A
C3312      H3321   1.083       .  S
C3312      C3313   1.400       .  A
C3313      C3314   1.407       .  A
C3314      H3322   1.085       .  S
C3323      C3324   1.400       .  A
C3323      C3328   1.408       .  A
C3324      H3337   1.083       .  S
C3324      C3325   1.400       .  A
C3325      H3338   1.077       .  S
C3325      C3326   1.418       .  A
C3326      C3332   1.432       .  A
C3326      C3327   1.419       .  A
C3327      C3329   1.402       .  A
C3327      C3328   1.406       .  A
C3328      H3339   1.084       .  S
C3329      H3340   1.084       .  S
C3329      C3330   1.392       .  A
C3330      H3341   1.084       .  S
C3330      C3331   1.399       .  A
C3331      C3332   1.426       .  A
C3331      C3336   1.413       .  A
C3332      C3333   1.411       .  A
C3333      H3342   1.077       .  S
C3333      C3334   1.393       .  A
C3334      H3343   1.084       .  S
C3334      C3335   1.402       .  A
C3335      C3336   1.400       .  A
C3336      H3344   1.084       .  S
C3345      C3346   1.399       .  A
C3345      C3350   1.410       .  A
C3346      H3359   1.083       .  S
C3346      C3347   1.403       .  A
C3347      H3360   1.077       .  S
C3347      C3348   1.421       .  A
C3348      C3354   1.435       .  A
C3348      C3349   1.418       .  A
C3349      C3351   1.403       .  A
C3349      C3350   1.408       .  A
C3350      H3361   1.084       .  S
C3351      H3362   1.084       .  S
C3351      C3352   1.394       .  A
C3352      H3363   1.084       .  S
C3352      C3353   1.400       .  A
C3353      C3354   1.427       .  A
C3353      C3358   1.418       .  A
C3354      C3355   1.408       .  A
C3355      H3364   1.077       .  S
C3355      C3356   1.392       .  A
C3356      H3365   1.084       .  S
C3356      C3357   1.407       .  A
C3357      C3358   1.403       .  A
C3358      H3366   1.084   1_655  S
C3367      C3368   1.397       .  A
C3367      C3372   1.406       .  A
C3368      H3381   1.083       .  S
C3368      C3369   1.403       .  A
C3369      H3382   1.078       .  S
C3369      C3370   1.420       .  A
C3370      C3376   1.435       .  A
C3370      C3371   1.419       .  A
C3371      C3373   1.402       .  A
C3371      C3372   1.408       .  A
C3372      H3383   1.085       .  S
C3373      H3384   1.084       .  S
C3373      C3374   1.395       .  A
C3374      H3385   1.084       .  S
C3374      C3375   1.401       .  A
C3375      C3376   1.426       .  A
C3375      C3380   1.417       .  A
C3376      C3377   1.409       .  A
C3377      H3386   1.078       .  S
C3377      C3378   1.395       .  A
C3378      H3387   1.083       .  S
C3378      C3379   1.407       .  A
C3379      C3380   1.406       .  A
C3380      H3388   1.084       .  S
C3389      C3390   1.405       .  A
C3389      C3394   1.399       .  A
C3390      H3403   1.084       .  S
C3390      C3391   1.396       .  A
C3391      H3404   1.078       .  S
C3391      C3392   1.411       .  A
C3392      C3398   1.433       .  A
C3392      C3393   1.426       .  A
C3393      C3395   1.397       .  A
C3393      C3394   1.407       .  A
C3394      H3405   1.085       .  S
C3395      H3406   1.084       .  S
C3395      C3396   1.388       .  A
C3396      H3407   1.084       .  S
C3396      C3397   1.400       .  A
C3397      C3398   1.419       .  A
C3397      C3402   1.398       .  A
C3398      C3399   1.422       .  A
C3399      H3408   1.078       .  S
C3399      C3400   1.405       .  A
C3400      H3409   1.083       .  S
C3400      C3401   1.398       .  A
C3401      C3402   1.403       .  A
C3402      H3410   1.085       .  S
C3411      C3412   1.396       .  A
C3411      C3416   1.408       .  A
C3412      H3425   1.083       .  S
C3412      C3413   1.400       .  A
C3413      H3426   1.077       .  S
C3413      C3414   1.419       .  A
C3414      C3420   1.433       .  A
C3414      C3415   1.419       .  A
C3415      C3417   1.403       .  A
C3415      C3416   1.408       .  A
C3416      H3427   1.085       .  S
C3417      H3428   1.084       .  S
C3417      C3418   1.395       .  A
C3418      H3429   1.084       .  S
C3418      C3419   1.401       .  A
C3419      C3420   1.425       .  A
C3419      C3424   1.417       .  A
C3420      C3421   1.409       .  A
C3421      H3430   1.077       .  S
C3421      C3422   1.392       .  A
C3422      H3431   1.083       .  S
C3422      C3423   1.406       .  A
C3423      C3424   1.406       .  A
C3424      H3432   1.084       .  S
C3433      C3434   1.400       .  A
C3433      C3438   1.407       .  A
C3434      H3447   1.083       .  S
C3434      C3435   1.403       .  A
C3435      H3448   1.077       .  S
C3435      C3436   1.419       .  A
C3436      C3442   1.432       .  A
C3436      C3437   1.419       .  A
C3437      C3439   1.400       .  A
C3437      C3438   1.401       .  A
C3438      H3449   1.085       .  S
C3439      H3450   1.084       .  S
C3439      C3440   1.388       .  A
C3440      H3451   1.084       .  S
C3440      C3441   1.398       .  A
C3441      C3442   1.426       .  A
C3441      C3446   1.407       .  A
C3442      C3443   1.413       .  A
C3443      H3452   1.077       .  S
C3443      C3444   1.396       .  A
C3444      H3453   1.084       .  S
C3444      C3445   1.400       .  A
C3445      C3446   1.396       .  A
C3446      H3454   1.085       .  S
C3455      C3456   1.404       .  A
C3455      C3460   1.398       .  A
C3456      H3469   1.084       .  S
C3456      C3457   1.397       .  A
C3457      H3470   1.078       .  S
C3457      C3458   1.412       .  A
C3458      C3464   1.432       .  A
C3458      C3459   1.426       .  A
C3459      C3461   1.397       .  A
C3459      C3460   1.406       .  A
C3460      H3471   1.085       .  S
C3461      H3472   1.084       .  S
C3461      C3462   1.387       .  A
C3462      H3473   1.084       .  S
C3462      C3463   1.400       .  A
C3463      C3464   1.419       .  A
C3463      C3468   1.399       .  A
C3464      C3465   1.421       .  A
C3465      H3474   1.077       .  S
C3465      C3466   1.405       .  A
C3466      H3475   1.083       .  S
C3466      C3467   1.399       .  A
C3467      C3468   1.403       .  A
C3468      H3476   1.085       .  S
C3477      C3478   1.398       .  A
C3477      C3482   1.405       .  A
C3478      H3491   1.084       .  S
C3478      C3479   1.396       .  A
C3479      H3492   1.078       .  S
C3479      C3480   1.415       .  A
C3480      C3486   1.426       .  A
C3480      C3481   1.419       .  A
C3481      C3483   1.402       .  A
C3481      C3482   1.407       .  A
C3482      H3493   1.085       .  S
C3483      H3494   1.084       .  S
C3483      C3484   1.395       .  A
C3484      H3495   1.084       .  S
C3484      C3485   1.401       .  A
C3485      C3486   1.423       .  A
C3485      C3490   1.412       .  A
C3486      C3487   1.410       .  A
C3487      H3496   1.078       .  S
C3487      C3488   1.391       .  A
C3488      H3497   1.084       .  S
C3488      C3489   1.399       .  A
C3489      C3490   1.401       .  A
C3490      H3498   1.084   1_655  S
C3499      C3500   1.398       .  A
C3499      C3504   1.405       .  A
C3500      H3513   1.083       .  S
C3500      C3501   1.406       .  A
C3501      H3514   1.077       .  S
C3501      C3502   1.423       .  A
C3502      C3508   1.434       .  A
C3502      C3503   1.418       .  A
C3503      C3505   1.400       .  A
C3503      C3504   1.399       .  A
C3504      H3515   1.085       .  S
C3505      H3516   1.084       .  S
C3505      C3506   1.388       .  A
C3506      H3517   1.084       .  S
C3506      C3507   1.397       .  A
C3507      C3508   1.427       .  A
C3507      C3512   1.410       .  A
C3508      C3509   1.410       .  A
C3509      H3518   1.078       .  S
C3509      C3510   1.396       .  A
C3510      H3519   1.084       .  S
C3510      C3511   1.407       .  A
C3511      C3512   1.399       .  A
C3512      H3520   1.084       .  S
C3521      C3522   1.402       .  A
C3521      C3526   1.399       .  A
C3522      H3535   1.084       .  S
C3522      C3523   1.397       .  A
C3523      H3536   1.078       .  S
C3523      C3524   1.413       .  A
C3524      C3530   1.434       .  A
C3524      C3525   1.425       .  A
C3525      C3527   1.399       .  A
C3525      C3526   1.411       .  A
C3526      H3537   1.085       .  S
C3527      H3538   1.084       .  S
C3527      C3528   1.391       .  A
C3528      H3539   1.084       .  S
C3528      C3529   1.401       .  A
C3529      C3530   1.420       .  A
C3529      C3534   1.405       .  A
C3530      C3531   1.419       .  A
C3531      H3540   1.077       .  S
C3531      C3532   1.403       .  A
C3532      H3541   1.083       .  S
C3532      C3533   1.401       .  A
C3533      C3534   1.407       .  A
C3534      H3542   1.084       .  S
C3543      C3544   1.402       .  A
C3543      C3548   1.405       .  A
C3544      H3557   1.083       .  S
C3544      C3545   1.405       .  A
C3545      H3558   1.078       .  S
C3545      C3546   1.419       .  A
C3546      C3552   1.434       .  A
C3546      C3547   1.420       .  A
C3547      C3549   1.400       .  A
C3547      C3548   1.401       .  A
C3548      H3559   1.085       .  S
C3549      H3560   1.084       .  S
C3549      C3550   1.388       .  A
C3550      H3561   1.084       .  S
C3550      C3551   1.398       .  A
C3551      C3552   1.425       .  A
C3551      C3556   1.407       .  A
C3552      C3553   1.414       .  A
C3553      H3562   1.078       .  S
C3553      C3554   1.399       .  A
C3554      H3563   1.084       .  S
C3554      C3555   1.400       .  A
C3555      C3556   1.397       .  A
C3556      H3564   1.085       .  S
C3565      C3566   1.400       .  A
C3565      C3570   1.407       .  A
C3566      H3579   1.083       .  S
C3566      C3567   1.396       .  A
C3567      H3580   1.077       .  S
C3567      C3568   1.415       .  A
C3568      C3574   1.428       .  A
C3568      C3569   1.419       .  A
C3569      C3571   1.402       .  A
C3569      C3570   1.408       .  A
C3570      H3581   1.084       .  S
C3571      H3582   1.084       .  S
C3571      C3572   1.395       .  A
C3572      H3583   1.084       .  S
C3572      C3573   1.401       .  A
C3573      C3574   1.424       .  A
C3573      C3578   1.412       .  A
C3574      C3575   1.411       .  A
C3575      H3584   1.077       .  S
C3575      C3576   1.392       .  A
C3576      H3585   1.084       .  S
C3576      C3577   1.398       .  A
C3577      C3578   1.401       .  A
C3578      H3586   1.084       .  S
C3587      C3588   1.397       .  A
C3587      C3592   1.408       .  A
C3588      H3601   1.083       .  S
C3588      C3589   1.399       .  A
C3589      H3602   1.077       .  S
C3589      C3590   1.419       .  A
C3590      C3596   1.427       .  A
C3590      C3591   1.417       .  A
C3591      C3593   1.402       .  A
C3591      C3592   1.400       .  A
C3592      H3603   1.085       .  S
C3593      H3604   1.084       .  S
C3593      C3594   1.391       .  A
C3594      H3605   1.084       .  S
C3594      C3595   1.399       .  A
C3595      C3596   1.426       .  A
C3595      C3600   1.410       .  A
C3596      C3597   1.409       .  A
C3597      H3606   1.077       .  S
C3597      C3598   1.389       .  A
C3598      H3607   1.084       .  S
C3598      C3599   1.400       .  A
C3599      C3600   1.399       .  A
C3600      H3608   1.084       .  S
C3609      C3610   1.406       .  A
C3609      C3614   1.402       .  A
C3610      H3623   1.083       .  S
C3610      C3611   1.396       .  A
C3611      H3624   1.078       .  S
C3611      C3612   1.411       .  A
C3612      C3618   1.432       .  A
C3612      C3613   1.425       .  A
C3613      C3615   1.399       .  A
C3613      C3614   1.409       .  A
C3614      H3625   1.084       .  S
C3615      H3626   1.084       .  S
C3615      C3616   1.390       .  A
C3616      H3627   1.084       .  S
C3616      C3617   1.400       .  A
C3617      C3618   1.419       .  A
C3617      C3622   1.400       .  A
C3618      C3619   1.421       .  A
C3619      H3628   1.078       .  S
C3619      C3620   1.404       .  A
C3620      H3629   1.083       .  S
C3620      C3621   1.397       .  A
C3621      C3622   1.404       .  A
C3622      H3630   1.085       .  S
C3631      C3632   1.402       .  A
C3631      C3636   1.400       .  A
C3632      H3645   1.084       .  S
C3632      C3633   1.395       .  A
C3633      H3646   1.078       .  S
C3633      C3634   1.412       .  A
C3634      C3640   1.432       .  A
C3634      C3635   1.425       .  A
C3635      C3637   1.399       .  A
C3635      C3636   1.409       .  A
C3636      H3647   1.085       .  S
C3637      H3648   1.084       .  S
C3637      C3638   1.390       .  A
C3638      H3649   1.084       .  S
C3638      C3639   1.401       .  A
C3639      C3640   1.420       .  A
C3639      C3644   1.404       .  A
C3640      C3641   1.419       .  A
C3641      H3650   1.078       .  S
C3641      C3642   1.402       .  A
C3642      H3651   1.083       .  S
C3642      C3643   1.397       .  A
C3643      C3644   1.403       .  A
C3644      H3652   1.085       .  S
C3653      C3654   1.406       .  A
C3653      C3658   1.401       .  A
C3654      H3667   1.083       .  S
C3654      C3655   1.398       .  A
C3655      H3668   1.078       .  S
C3655      C3656   1.411       .  A
C3656      C3662   1.435       .  A
C3656      C3657   1.426       .  A
C3657      C3659   1.398       .  A
C3657      C3658   1.411       .  A
C3658      H3669   1.084       .  S
C3659      H3670   1.084       .  S
C3659      C3660   1.389       .  A
C3660      H3671   1.084       .  S
C3660      C3661   1.400       .  A
C3661      C3662   1.419       .  A
C3661      C3666   1.402       .  A
C3662      C3663   1.422       .  A
C3663      H3672   1.078       .  S
C3663      C3664   1.407       .  A
C3664      H3673   1.083       .  S
C3664      C3665   1.398       .  A
C3665      C3666   1.403       .  A
C3666      H3674   1.085       .  S
C3675      C3676   1.405       .  A
C3675      C3680   1.402       .  A
C3676      H3689   1.083       .  S
C3676      C3677   1.396       .  A
C3677      H3690   1.078       .  S
C3677      C3678   1.412       .  A
C3678      C3684   1.434       .  A
C3678      C3679   1.425       .  A
C3679      C3681   1.399       .  A
C3679      C3680   1.410       .  A
C3680      H3691   1.084       .  S
C3681      H3692   1.084       .  S
C3681      C3682   1.390       .  A
C3682      H3693   1.084       .  S
C3682      C3683   1.400       .  A
C3683      C3684   1.420       .  A
C3683      C3688   1.404       .  A
C3684      C3685   1.420       .  A
C3685      H3694   1.077       .  S
C3685      C3686   1.403       .  A
C3686      H3695   1.083       .  S
C3686      C3687   1.398       .  A
C3687      C3688   1.404       .  A
C3688      H3696   1.085       .  S
