geometry optimzed in LAMMPS
_audit_creation_date              2020-11-30 
_audit_creation_method            'lammps2cif' 
_symmetry_space_group_name_H-M    'P1' 
_symmetry_Int_Tables_number       1 
_symmetry_cell_setting            triclinic 
loop_ 
_symmetry_equiv_pos_as_xyz 
  x,y,z 
_cell_length_a                    38.19576576 
_cell_length_b                    38.65276555343566 
_cell_length_c                    38.920393237549234 
_cell_angle_alpha                 90.33399300377556 
_cell_angle_beta                  92.79973960838602 
_cell_angle_gamma                 87.63734297183574 
loop_ 
_atom_site_label 
_atom_site_type_symbol 
_atom_site_fract_x 
_atom_site_fract_y 
_atom_site_fract_z 
_atom_site_charge 
O1          O  0.50184014  0.55658850  0.63161174    -0.81100
O2          O  0.59236717  0.65366854  0.57396360    -0.65800
O3          O  0.53968572  0.57345558  0.57929364    -1.12400
C4          C  0.64551370  0.52944301  0.63033198     1.05800
O5          O  0.63003484  0.62206447  0.54468396    -0.79000
O6          O  0.61901155  0.55113513  0.54096170    -0.66600
Ni7        Ni  0.49196357  0.58085014  0.59002506     1.34900
C8          C  0.60794196  0.52163896  0.54852246     0.84500
O9          O  0.52817644  0.63930080  0.54928782    -0.79500
O10         O  0.48252989  0.60483963  0.54688411    -0.89800
C11         C  0.61797047  0.65165011  0.55467119     0.84100
O12         O  0.49365604  0.62280240  0.61735187    -0.68000
O13         O  0.65549264  0.54330735  0.60291236    -0.87300
C14         C  0.52028039  0.63494920  0.63337873     0.84900
C15         C  0.50102848  0.62753667  0.53352051     1.06500
H16         H  0.60782044  0.60025430  0.62155563     0.38300
O17         O  0.60082203  0.58870196  0.60038821    -1.10000
O18         O  0.58961209  0.51807905  0.57469751    -0.66600
Ni19       Ni  0.57374357  0.54989147  0.61045537     1.26300
O20         O  0.55029550  0.63223295  0.62061787    -0.66800
O21         O  0.61301580  0.53013294  0.63892103    -0.79100
C22         C  0.50950645  0.52452711  0.63030334     0.84300
O23         O  0.54070942  0.51451085  0.62250500    -0.66300
Ni24       Ni  0.64057630  0.58169945  0.57403387     1.27400
Ni25       Ni  0.56460406  0.61452008  0.57635957     1.26100
H26         H  0.53998346  0.56193359  0.55720652     0.38900
O27         O  0.87393914  0.48952844  0.43090936    -0.81100
O28         O  0.91868754  0.59616516  0.33213202    -0.65800
O29         O  0.91766712  0.54130882  0.41270218    -1.12400
C30         C  0.85546204  0.63986368  0.45022975     1.05800
O31         O  0.94681249  0.63385490  0.36462282    -0.79000
O32         O  0.94797231  0.62250271  0.43672411    -0.66600
Ni33       Ni  0.91588961  0.49255488  0.40655116     1.34900
C34         C  0.93935649  0.61031895  0.46540502     0.84500
O35         O  0.94959344  0.53603968  0.34716299    -0.79500
O36         O  0.95948652  0.49169559  0.38269756    -0.89800
C37         C  0.93788872  0.62193976  0.33473528     0.84100
O38         O  0.88571348  0.49211849  0.36514679    -0.68000
O39         O  0.88219916  0.65248152  0.43701683    -0.87300
C40         C  0.86621370  0.51678160  0.35224571     0.84900
C41         C  0.96885252  0.51065018  0.35835797     1.06500
H42         H  0.86960639  0.60512648  0.38140833     0.38300
O43         O  0.89117119  0.59972043  0.39468314    -1.10000
O44         O  0.91445295  0.58933415  0.46685291    -0.66600
Ni45       Ni  0.88130893  0.57085860  0.43225633     1.26300
O46         O  0.87614906  0.54782837  0.35288130    -0.66800
O47         O  0.84869932  0.60706827  0.44893631    -0.79100
C48         C  0.86256000  0.50344426  0.45807608     0.84300
O49         O  0.86762599  0.53569457  0.46569036    -0.66300
Ni50       Ni  0.91453614  0.64109248  0.40226273     1.27400
Ni51       Ni  0.91894079  0.56735337  0.37121916     1.26100
H52         H  0.93937264  0.54503315  0.42574373     0.38900
O53         O  0.85280011  0.45708635  0.07814973    -0.81100
O54         O  0.92344964  0.36325033  0.17331339    -0.65800
O55         O  0.90870012  0.41566746  0.09263562    -1.12400
C56         C  0.86189600  0.31222521  0.05270169     1.05800
O57         O  0.95604507  0.32638683  0.14372029    -0.79000
O58         O  0.95276250  0.33874998  0.07051304    -0.66600
Ni59       Ni  0.89786799  0.46323277  0.09921335     1.34900
C60         C  0.94173548  0.35345101  0.04237706     0.84500
O61         O  0.94077398  0.42648770  0.15810898    -0.79500
O62         O  0.94478706  0.46822773  0.12014158    -0.89800
C63         C  0.94643992  0.33893792  0.17275798     0.84100
O64         O  0.87477248  0.46127758  0.14233538    -0.68000
O65         O  0.89205172  0.30207456  0.06604256    -0.87300
C66         C  0.85782785  0.43563892  0.15204833     0.84900
C67         C  0.95868754  0.44920315  0.14430163     1.06500
H68         H  0.87392100  0.34791124  0.12176223     0.38300
O69         O  0.89367571  0.35536256  0.10950445    -1.10000
O70         O  0.91199005  0.36952270  0.03943956    -0.66600
Ni71       Ni  0.87693226  0.38335097  0.07134534     1.26300
O72         O  0.87097865  0.40514108  0.14945215    -0.66800
O73         O  0.85018832  0.34444522  0.05291586    -0.79100
C74         C  0.84917633  0.44934641  0.04663762     0.84300
O75         O  0.85756301  0.41806023  0.03683696    -0.66300
Ni76       Ni  0.92397340  0.31663247  0.10308165     1.27400
Ni77       Ni  0.91640415  0.39066865  0.13385134     1.26100
H78         H  0.93030284  0.41435864  0.08079198     0.38900
C79         C  0.73304464  0.61842600  0.99957467     0.80000
N80         N  0.70159328  0.60170637  0.99673951    -0.78300
C81         C  0.70153666  0.56631148  0.99250810     0.82500
N82         N  0.73226256  0.54846445  0.99087361    -0.78200
C83         C  0.76344102  0.56313293  0.99419191     0.82600
N84         N  0.76408420  0.59852086  0.99901027    -0.79900
C85         C  0.08867554  0.48498385  0.27670653     0.80000
N86         N  0.07124942  0.47776592  0.24688293    -0.78300
C87         C  0.08785079  0.47029014  0.21789712     0.82500
N88         N  0.12381661  0.47003311  0.21845211    -0.78200
C89         C  0.14265460  0.47737230  0.24857047     0.82600
N90         N  0.12467292  0.48449296  0.27788877    -0.79900
O91         O  0.51364432  0.41960240  0.86364291    -0.81100
O92         O  0.60522492  0.31816963  0.92776720    -0.65800
O93         O  0.55412128  0.40292196  0.91842468    -1.12400
C94         C  0.65908930  0.43550865  0.87222899     1.05800
O95         O  0.64324671  0.34677987  0.96035184    -0.79000
O96         O  0.63855413  0.42138352  0.95987974    -0.66600
Ni97       Ni  0.50577568  0.39963075  0.90654546     1.34900
C98         C  0.62409347  0.45061084  0.95066508     0.84500
O99         O  0.54160444  0.33816596  0.94683539    -0.79500
O100        O  0.49900177  0.37885794  0.95068646    -0.89800
C101        C  0.63051396  0.31801336  0.94982865     0.84100
O102        O  0.50593964  0.35593168  0.88250662    -0.68000
O103        O  0.67081886  0.41871895  0.89897184    -0.87300
C104        C  0.53130069  0.34426002  0.86533776     0.84900
C105        C  0.51700153  0.35296791  0.96330329     1.06500
H106        H  0.62037075  0.36911446  0.88114695     0.38300
O107        O  0.61421810  0.38177365  0.90164725    -1.10000
O108        O  0.60351532  0.45343223  0.92397885    -0.66600
Ni109      Ni  0.58715460  0.42223174  0.88823274     1.26300
O110        O  0.56240001  0.34457949  0.87817226    -0.66800
O111        O  0.62604229  0.43864043  0.86230807    -0.79100
C112        C  0.52217104  0.45067799  0.86171653     0.84300
O113        O  0.55341983  0.45908305  0.87162682    -0.66300
Ni114      Ni  0.65519092  0.38462694  0.92977185     1.27400
Ni115      Ni  0.57824633  0.35972967  0.92334605     1.26100
H116        H  0.55593037  0.41475476  0.94033023     0.38900
O117        O  0.47233313  0.06693570  0.86486136    -0.81100
O118        O  0.37653568  0.17177251  0.91604064    -0.65800
O119        O  0.43138122  0.08874444  0.91421839    -1.12400
C120        C  0.32705301  0.04886450  0.86278604     1.05800
O121        O  0.34190405  0.14264358  0.94813465    -0.79000
O122        O  0.34890428  0.06879648  0.95114214    -0.66600
Ni123      Ni  0.47942971  0.09288372  0.90583694     1.34900
C124        C  0.36336939  0.03950741  0.94356034     0.84500
O125        O  0.44123715  0.15592859  0.94022145    -0.79500
O126        O  0.48580199  0.11797616  0.94907007    -0.89800
C127        C  0.35289434  0.17154585  0.93753481     0.84100
O128        O  0.47731800  0.13379402  0.87657629    -0.68000
O129        O  0.31533040  0.06658998  0.88801377    -0.87300
C130        C  0.45086346  0.14679470  0.85908945     0.84900
C131        C  0.46595886  0.14278646  0.95974799     1.06500
H132        H  0.36301351  0.11746902  0.87047776     0.38300
O133        O  0.37020576  0.10637650  0.89204027    -1.10000
O134        O  0.38354123  0.03629853  0.91865425    -0.66600
Ni135      Ni  0.39845704  0.06612791  0.88303934     1.26300
O136        O  0.42023945  0.14570623  0.87045490    -0.66800
O137        O  0.35989549  0.04709728  0.85513870    -0.79100
C138        C  0.46398456  0.03563030  0.86641446     0.84300
O139        O  0.43234097  0.02853819  0.87266648    -0.66300
Ni140      Ni  0.33036817  0.10311235  0.91816474     1.27400
Ni141      Ni  0.40553366  0.13132462  0.91506572     1.26100
H142        H  0.43039331  0.07826672  0.93659768     0.38900
C143        C  0.48354473  0.21885852  0.08417407     0.80000
N144        N  0.48613553  0.24898448  0.06751168    -0.78300
C145        C  0.49257943  0.27866297  0.08434205     0.82500
N146        N  0.49657641  0.27848741  0.11934875    -0.78200
C147        C  0.49344516  0.24832426  0.13721439     0.82600
N148        N  0.48729409  0.21817067  0.11935283    -0.79900
C149        C  0.47510688  0.22422356  0.73602213     0.80000
N150        N  0.47440212  0.22464603  0.70043913    -0.78300
C151        C  0.48600072  0.25321752  0.68338048     0.82500
N152        N  0.49846155  0.28040600  0.70267834    -0.78200
C153        C  0.49958785  0.27899333  0.73780697     0.82600
N154        N  0.48781297  0.25128864  0.75352612    -0.79900
C155        C  0.62262718  0.97916259  0.76764655     0.80000
N156        N  0.60604115  0.97564860  0.79790510    -0.78300
C157        C  0.57029512  0.97390555  0.79738375     0.82500
N158        N  0.55181446  0.97672231  0.76718856    -0.78200
C159        C  0.56700443  0.98103570  0.73722786     0.82600
N160        N  0.60277932  0.98199333  0.73724189    -0.79900
C161        C  0.91164200  0.99644169  0.22335150     0.80000
N162        N  0.87569591  0.99603774  0.22249429    -0.78300
C163        C  0.85850903  0.98894243  0.25190616     0.82500
N164        N  0.87811720  0.98252882  0.28207942    -0.78200
C165        C  0.91407919  0.98322367  0.28251478     0.82600
N166        N  0.92980068  0.99000251  0.25319202    -0.79900
C167        C  0.24105327  0.33568119  0.00197289     0.80000
N168        N  0.21548703  0.31471717  0.01362408    -0.78300
C169        C  0.22041280  0.27908411  0.01278695     0.82500
N170        N  0.25023952  0.26567009  0.00032448    -0.78200
C171        C  0.27542825  0.28520990  0.98887729     0.82600
N172        N  0.27109532  0.32038299  0.98969994    -0.79900
C173        C  0.25188176  0.87686274  0.98715109     0.80000
N174        N  0.28360332  0.89245652  0.98499996    -0.78300
C175        C  0.28476310  0.92795752  0.98543695     0.82500
N176        N  0.25471505  0.94706220  0.98754328    -0.78200
C177        C  0.22333750  0.93298361  0.98960458     0.82600
N178        N  0.22181419  0.89755847  0.98967760    -0.79900
C179        C  0.32353234  0.99576195  0.24312843     0.80000
N180        N  0.30925707  0.98622082  0.27325521    -0.78300
C181        C  0.27363932  0.98659370  0.27547022     0.82500
N182        N  0.25284774  0.99615199  0.24811376    -0.78200
C183        C  0.26564639  0.00546955  0.21822902     0.82600
N184        N  0.30136357  0.00527192  0.21531117    -0.79900
C185        C  0.00172950  0.25915351  0.87476490     0.80000
N186        N  0.00611361  0.22813394  0.89242296    -0.78300
C187        C  0.00643469  0.22786671  0.92786880     0.82500
N188        N  0.00266442  0.25812790  0.94478204    -0.78200
C189        C  0.99836747  0.28873511  0.92850238     0.82600
N190        N  0.99758878  0.28940877  0.89328634    -0.79900
C191        C  0.99858395  0.24418730  0.35040576     0.80000
N192        N  0.99328896  0.27464170  0.33217128    -0.78300
C193        C  0.99783346  0.27510616  0.29744644     0.82500
N194        N  0.00604802  0.24543675  0.28134601    -0.78200
C195        C  0.00918831  0.21488553  0.29761558     0.82600
N196        N  0.00573567  0.21387326  0.33258444    -0.79900
O197        O  0.12940618  0.02559763  0.07832860    -0.81100
O198        O  0.07021588  0.11830979  0.17787252    -0.65800
O199        O  0.07630820  0.06946757  0.09449432    -1.12400
C200        C  0.13014968  0.17212707  0.06424468     1.05800
O201        O  0.03799734  0.15779950  0.14836637    -0.79000
O202        O  0.03847862  0.15532989  0.07320069    -0.66600
Ni203      Ni  0.08559908  0.02098167  0.09864761     1.34900
C204        C  0.04824200  0.14253888  0.04453186     0.84500
O205        O  0.04697582  0.05717332  0.15921362    -0.79500
O206        O  0.04111321  0.01558139  0.11988580    -0.89800
C207        C  0.04814769  0.14352089  0.17738603     0.84100
O208        O  0.11187239  0.01947058  0.14215669    -0.68000
O209        O  0.10263130  0.18436769  0.07866066    -0.87300
C210        C  0.13129209  0.04330346  0.15348982     0.84900
C211        C  0.02999333  0.03215715  0.14598048     1.06500
H212        H  0.11774341  0.13256516  0.12907427     0.38300
O213        O  0.09653528  0.12751864  0.11575031    -1.10000
O214        O  0.07418984  0.12075602  0.04340347    -0.66600
Ni215      Ni  0.10909502  0.10135762  0.07661209     1.26300
O216        O  0.11941350  0.07450061  0.15334263    -0.66800
O217        O  0.13828468  0.13904139  0.06229922    -0.79100
C218        C  0.13295895  0.03670341  0.04821345     0.84300
O219        O  0.12457815  0.06861079  0.04071837    -0.66300
Ni220      Ni  0.06987871  0.16924026  0.11137573     1.27400
Ni221      Ni  0.07307205  0.09235877  0.13729601     1.26100
H222        H  0.05398139  0.07278121  0.08188261     0.38900
O223        O  0.32328485  0.94790608  0.60831550    -0.81100
O224        O  0.41407239  0.87962304  0.51158095    -0.65800
O225        O  0.36214029  0.89237514  0.59169821    -1.12400
C226        C  0.46476859  0.94605665  0.63318815     1.05800
O227        O  0.45593079  0.85420818  0.54465575    -0.79000
O228        O  0.45679675  0.85845126  0.61733615    -0.66600
Ni229      Ni  0.31398607  0.90574088  0.58569558     1.34900
C230        C  0.43806101  0.86273392  0.64350338     0.84500
O231        O  0.35066218  0.85933445  0.52851701    -0.79500
O232        O  0.30626657  0.86210706  0.56415945    -0.89800
C233        C  0.44106975  0.85941285  0.51472137     0.84100
O234        O  0.31315203  0.92997758  0.54270041    -0.68000
O235        O  0.47873633  0.92349052  0.61331002    -0.87300
C236        C  0.33871692  0.94492018  0.53058417     0.84900
C237        C  0.32487054  0.84576282  0.54250073     1.06500
H238        H  0.42456143  0.93340788  0.56373935     0.38300
O239        O  0.42118080  0.91191909  0.57549057    -1.10000
O240        O  0.41288226  0.88535599  0.64437611    -0.66600
Ni241      Ni  0.39434092  0.92261194  0.61488033     1.26300
O242        O  0.36934137  0.93078219  0.53187559    -0.66800
O243        O  0.43117889  0.95064914  0.63591500    -0.79100
C244        C  0.32940472  0.94421450  0.64020499     0.84300
O245        O  0.36064055  0.93401618  0.65066346    -0.66300
Ni246      Ni  0.46559918  0.88924264  0.58009365     1.27400
Ni247      Ni  0.38653758  0.88651538  0.55093023     1.26100
H248        H  0.36346087  0.87047868  0.60359339     0.38900
O249        O  0.07884718  0.86114544  0.48049968    -0.81100
O250        O  0.16799391  0.92211520  0.38066904    -0.65800
O251        O  0.08920236  0.91282952  0.43467101    -1.12400
C252        C  0.04733833  0.85610438  0.33542797     1.05800
O253        O  0.13328594  0.94768780  0.34063674    -0.79000
O254        O  0.06096305  0.94750524  0.35471226    -0.66600
Ni255      Ni  0.09925828  0.90527912  0.48249127     1.34900
C256        C  0.03273893  0.93772709  0.36731113     0.84500
O257        O  0.15353734  0.94766848  0.44189790    -0.79500
O258        O  0.11942120  0.95090521  0.48640786    -0.89800
C259        C  0.16412184  0.93969124  0.35352502     0.84100
O260        O  0.14316219  0.87859552  0.47989056    -0.68000
O261        O  0.05810335  0.88429591  0.32333977    -0.87300
C262        C  0.15273325  0.86152506  0.45357940     0.84900
C263        C  0.14108727  0.96461678  0.46706808     1.06500
H264        H  0.11922910  0.87127369  0.36958502     0.38300
O265        O  0.10530315  0.89171284  0.37546099    -1.10000
O266        O  0.03270204  0.91152764  0.38714107    -0.66600
Ni267      Ni  0.06901318  0.87841374  0.40418485     1.26300
O268        O  0.15056920  0.87538845  0.42423002    -0.66800
O269        O  0.05108821  0.84768943  0.36777907    -0.79100
C270        C  0.04795447  0.85436088  0.47003912     0.84300
O271        O  0.03685145  0.86218195  0.43890618    -0.66300
Ni272      Ni  0.09442941  0.91597517  0.33441181     1.27400
Ni273      Ni  0.12945492  0.91856541  0.40864937     1.26100
H274        H  0.07480972  0.93392724  0.43272742     0.38900
C275        C  0.99033901  0.73387029  0.62584946     0.80000
N276        N  0.98469562  0.70290938  0.60916054    -0.78300
C277        C  0.98408355  0.70102899  0.57393765     0.82500
N278        N  0.98894714  0.72992538  0.55578025    -0.78200
C279        C  0.99473429  0.76079825  0.57085804     0.82600
N280        N  0.99555975  0.76286282  0.60631129    -0.79900
C281        C  0.21522460  0.08564678  0.49450035     0.80000
N282        N  0.24414697  0.06472835  0.49687329    -0.78300
C283        C  0.27653533  0.07675838  0.50150962     0.82500
N284        N  0.28050862  0.11187406  0.50411852    -0.78200
C285        C  0.25141610  0.13437905  0.50179132     0.82600
N286        N  0.21858660  0.12084681  0.49680490    -0.79900
C287        C  0.21466163  0.72644996  0.47222349     0.80000
N288        N  0.24422155  0.74056755  0.48460849    -0.78300
C289        C  0.27076774  0.72148107  0.49956979     0.82500
N290        N  0.26830067  0.68663419  0.50200591    -0.78200
C291        C  0.23903509  0.67096130  0.48880773     0.82600
N292        N  0.21143657  0.69120938  0.47452607    -0.79900
C293        C  0.98987526  0.73482805  0.17395568     0.80000
N294        N  0.98171730  0.70416240  0.18891975    -0.78300
C295        C  0.98164317  0.70170149  0.22397824     0.82500
N296        N  0.98930417  0.72935548  0.24340798    -0.78200
C297        C  0.99710987  0.75985477  0.23000976     0.82600
N298        N  0.99758285  0.76277777  0.19485240    -0.79900
C299        C  0.15946549  0.97676292  0.75245614     0.80000
N300        N  0.18112814  0.98914542  0.77892753    -0.78300
C301        C  0.21695884  0.98588695  0.77712417     0.82500
N302        N  0.23015093  0.96945185  0.75010622    -0.78200
C303        C  0.21058716  0.95781408  0.72361096     0.82600
N304        N  0.17463846  0.96212187  0.72389342    -0.79900
C305        C  0.74109572  0.14838451  0.01095065     0.80000
N306        N  0.77087164  0.16760316  0.01498508    -0.78300
C307        C  0.76887674  0.20262989  0.00825050     0.82500
N308        N  0.73764563  0.21728664  0.99820371    -0.78200
C309        C  0.70826386  0.19957197  0.99493140     0.82600
N310        N  0.70964604  0.16493066  0.00136129    -0.79900
C311        C  0.48381433  0.74126569  0.81051159     0.80000
N312        N  0.49488079  0.71271149  0.79170097    -0.78300
C313        C  0.49798579  0.71514530  0.75676074     0.82500
N314        N  0.48933359  0.74532509  0.74108436    -0.78200
C315        C  0.47760321  0.77344519  0.75825211     0.82600
N316        N  0.47481423  0.77171527  0.79327303    -0.79900
C317        C  0.47460250  0.73033367  0.35477712     0.80000
N318        N  0.47336867  0.76169654  0.37187646    -0.78300
C319        C  0.47512445  0.76278320  0.40711785     0.82500
N320        N  0.47748644  0.73285135  0.42467644    -0.78200
C321        C  0.47812681  0.70180086  0.40895582     0.82600
N322        N  0.47684826  0.70020258  0.37370271    -0.79900
C323        C  0.73885662  0.80664394  0.50974718     0.80000
N324        N  0.76627803  0.78406278  0.50195075    -0.78300
C325        C  0.76187314  0.74893316  0.50265082     0.82500
N326        N  0.73073773  0.73750946  0.51093711    -0.78200
C327        C  0.70348969  0.75876570  0.51806241     0.82600
N328        N  0.70720530  0.79361873  0.51732418    -0.79900
C329        C  0.35612416  0.48116137  0.74043793     0.80000
N330        N  0.37136560  0.47621290  0.70929618    -0.78300
C331        C  0.40714213  0.47455002  0.70774725     0.82500
N332        N  0.42694064  0.47926162  0.73673588    -0.78200
C333        C  0.41305308  0.48545617  0.76736173     0.82600
N334        N  0.37733106  0.48579257  0.76954020    -0.79900
C335        C  0.76551144  0.48419647  0.79003316     0.80000
N336        N  0.74478670  0.48716336  0.76146072    -0.78300
C337        C  0.75714836  0.49141832  0.73027229     0.82500
N338        N  0.79262875  0.49378506  0.72750473    -0.78200
C339        C  0.81496849  0.49085693  0.75638552     0.82600
N340        N  0.80110722  0.48542942  0.78783552    -0.79900
C341        C  0.73047886  0.35519406  0.50807311     0.80000
N342        N  0.76084542  0.37355242  0.50630206    -0.78300
C343        C  0.75933522  0.40932980  0.50523730     0.82500
N344        N  0.72763244  0.42580521  0.50551174    -0.78200
C345        C  0.69736548  0.40923792  0.50709867     0.82600
N346        N  0.69867290  0.37363382  0.50859230    -0.79900
C347        C  0.73334287  0.46270044  0.22475280     0.80000
N348        N  0.75193895  0.47143280  0.25339159    -0.78300
C349        C  0.73663253  0.48275360  0.28188384     0.82500
N350        N  0.70066225  0.48536218  0.28215475    -0.78200
C351        C  0.68047482  0.47613223  0.25340563     0.82600
N352        N  0.69730272  0.46521899  0.22434307    -0.79900
O353        O  0.04086789  0.47472176  0.63473571    -0.81100
O354        O  0.14397759  0.37528590  0.55062355    -0.65800
O355        O  0.06867756  0.43744161  0.57885820    -1.12400
C356        C  0.05420953  0.34676923  0.65863962     1.05800
O357        O  0.10347940  0.33672452  0.55063561    -0.79000
O358        O  0.04327028  0.32971781  0.57952916    -0.66600
Ni359      Ni  0.07551533  0.48049760  0.60006153     1.34900
C360        C  0.02831354  0.35272758  0.56028182     0.84500
O361        O  0.12100282  0.44516542  0.53190105    -0.79500
O362        O  0.10716110  0.49100785  0.56571174    -0.89800
C363        C  0.13476488  0.34380313  0.54601521     0.84100
O364        O  0.11424534  0.46467168  0.63044889    -0.68000
O365        O  0.07835373  0.32916532  0.64392064    -0.87300
C366        C  0.14241718  0.44809971  0.62251822     0.84900
C367        C  0.12034556  0.47816526  0.53871594     1.06500
H368        H  0.10963100  0.38402214  0.62204097     0.38300
O369        O  0.09432785  0.38053852  0.60194612    -1.10000
O370        O  0.02923142  0.38435825  0.56866799    -0.66600
Ni371      Ni  0.05163328  0.40458697  0.60929871     1.26300
O372        O  0.14372795  0.42824862  0.59640217    -0.66800
O373        O  0.03634214  0.37129578  0.64279525    -0.79100
C374        C  0.01147379  0.45999678  0.63063700     0.84300
O375        O  0.00988550  0.43129269  0.61504861    -0.66300
Ni376      Ni  0.09105734  0.33218901  0.59676946     1.27400
Ni377      Ni  0.10834423  0.40981896  0.56510523     1.26100
H378        H  0.05252961  0.44112208  0.55916680     0.38900
O379        O  0.62785549  0.04117104  0.46990502    -0.81100
O380        O  0.54203013  0.15744889  0.38318554    -0.65800
O381        O  0.57019259  0.07766776  0.43787994    -1.12400
C382        C  0.63823253  0.05225162  0.33974230     1.05800
O383        O  0.53244766  0.11606106  0.34571013    -0.79000
O384        O  0.55739213  0.05428330  0.32814133    -0.66600
Ni385      Ni  0.59422317  0.07882832  0.48130553     1.34900
C386        C  0.54010007  0.03990007  0.35046711     0.84500
O387        O  0.52857828  0.13679518  0.45166425    -0.79500
O388        O  0.56062629  0.11314328  0.49683277    -0.89800
C389        C  0.53108030  0.14773016  0.35302345     0.84100
O390        O  0.62567886  0.11578343  0.47216257    -0.68000
O391        O  0.62339014  0.07916927  0.32534239    -0.87300
C392        C  0.61889156  0.14487269  0.45694562     0.84900
C393        C  0.53550652  0.13298411  0.48446909     1.06500
H394        H  0.61171896  0.11155997  0.38433636     0.38300
O395        O  0.58975820  0.10007455  0.38156498    -1.10000
O396        O  0.55074121  0.04037530  0.38201216    -0.66600
Ni397      Ni  0.59575191  0.05646163  0.40169864     1.26300
O398        O  0.59389262  0.14873528  0.43407606    -0.66800
O399        O  0.62442312  0.03699476  0.36487488    -0.79100
C400        C  0.62166056  0.01343566  0.45253989     0.84300
O401        O  0.60200620  0.01430466  0.42541326    -0.66300
Ni402      Ni  0.57738154  0.09857944  0.33420741     1.27400
Ni403      Ni  0.55754748  0.11961555  0.41432546     1.26100
H404        H  0.54903276  0.06535183  0.44074694     0.38900
C405        C  0.48613634  0.25531618  0.64412376     0.80000
N406        N  0.48699571  0.22568904  0.62406300    -0.78300
C407        C  0.48860737  0.22810272  0.58890611     0.82500
N408        N  0.49004952  0.25959469  0.57469950    -0.78200
C409        C  0.48955348  0.28909311  0.59298504     0.82600
N410        N  0.48730331  0.28720562  0.62809953    -0.79900
O411        O  0.46678994  0.34384300  0.37419575    -0.81100
O412        O  0.37472230  0.44019145  0.47167527    -0.65800
O413        O  0.40688692  0.37519217  0.40324741    -1.12400
C414        C  0.46864767  0.47068691  0.36486469     1.05800
O415        O  0.36631457  0.47469613  0.42716788    -0.79000
O416        O  0.38363315  0.47843596  0.36404742    -0.66600
Ni417      Ni  0.43518700  0.33498347  0.41180609     1.34900
C418        C  0.36837986  0.45120072  0.35447351     0.84500
O419        O  0.36457222  0.36689498  0.45669195    -0.79500
O420        O  0.40303327  0.32174212  0.44558396    -0.89800
C421        C  0.36482937  0.47003466  0.45906355     0.84100
O422        O  0.46541971  0.35407485  0.44820045    -0.68000
O423        O  0.45392788  0.49045929  0.38687219    -0.87300
C424        C  0.45496976  0.36956723  0.47531961     0.84900
C425        C  0.37417241  0.33407277  0.45710135     1.06500
H426        H  0.44550461  0.43639356  0.43180893     0.38300
O427        O  0.42350482  0.43633084  0.41850505    -1.10000
O428        O  0.38364632  0.42190478  0.35933053    -0.66600
Ni429      Ni  0.42951881  0.40902941  0.37897099     1.26300
O430        O  0.42793012  0.39014467  0.47424590    -0.66800
O431        O  0.45489252  0.44271181  0.35449865    -0.79100
C432        C  0.45593260  0.35506140  0.34422157     0.84300
O433        O  0.43384572  0.37988046  0.34142776    -0.66300
Ni434      Ni  0.40945977  0.48303169  0.40763980     1.27400
Ni435      Ni  0.39229243  0.40451152  0.43937698     1.26100
H436        H  0.38621961  0.36805262  0.39018836     0.38900
C437        C  0.64043996  0.47874380  0.25349978     0.80000
N438        N  0.62340806  0.48225257  0.28395435    -0.78300
C439        C  0.58735153  0.48513982  0.28352744     0.82500
N440        N  0.56896658  0.48368125  0.25327439    -0.78200
C441        C  0.58443550  0.47983043  0.22313004     0.82600
N442        N  0.62045954  0.47792900  0.22301451    -0.79900
C443        C  0.48177504  0.73896998  0.84951969     0.80000
N444        N  0.48063115  0.70698465  0.86489174    -0.78300
C445        C  0.47938165  0.70468462  0.89991756     0.82500
N446        N  0.47875820  0.73366967  0.91889691    -0.78200
C447        C  0.48023589  0.76531157  0.90545634     0.82600
N448        N  0.48217100  0.76831516  0.87027526    -0.79900
O449        O  0.46398689  0.62570123  0.04092757    -0.81100
O450        O  0.37141430  0.54415013  0.14371915    -0.65800
O451        O  0.43079697  0.56994908  0.07117286    -1.12400
C452        C  0.33770203  0.65146039  0.04396753     1.05800
O453        O  0.32647823  0.54745306  0.10511754    -0.79000
O454        O  0.31976042  0.57218757  0.04210310    -0.66600
Ni455      Ni  0.47395212  0.59131729  0.07768585     1.34900
C456        C  0.34240679  0.55071120  0.03059398     0.84500
O457        O  0.44298531  0.52524146  0.12714902    -0.79500
O458        O  0.48791800  0.55686111  0.11087068    -0.89800
C459        C  0.33870179  0.53982200  0.13505479     0.84100
O460        O  0.46110174  0.62216699  0.11523553    -0.68000
O461        O  0.32170938  0.63968338  0.06920348    -0.87300
C462        C  0.44482365  0.61481185  0.14220745     0.84900
C463        C  0.47634198  0.53136448  0.12692523     1.06500
H464        H  0.37802202  0.61607781  0.10472833     0.38300
O465        O  0.37346538  0.59491194  0.09131437    -1.10000
O466        O  0.37458765  0.55792078  0.03132438    -0.66600
Ni467      Ni  0.39570194  0.59957706  0.04957973     1.26300
O468        O  0.42375861  0.59019753  0.14280734    -0.66800
O469        O  0.36067161  0.63261135  0.02872321    -0.79100
C470        C  0.44857070  0.61983828  0.01138578     0.84300
O471        O  0.42116461  0.60255718  0.00958582    -0.66300
Ni472      Ni  0.32421990  0.59306558  0.08712213     1.27400
Ni473      Ni  0.40482526  0.55798244  0.10969066     1.26100
H474        H  0.43458579  0.54986737  0.05760736     0.38900
C475        C  0.23876701  0.63209750  0.49003659     0.80000
N476        N  0.27021049  0.61355615  0.49316770    -0.78300
C477        C  0.27108903  0.57828554  0.49530923     0.82500
N478        N  0.24071350  0.56181934  0.49352836    -0.78200
C479        C  0.20937354  0.57908444  0.49010018     0.82600
N480        N  0.20812714  0.61461361  0.48881071    -0.79900
O481        O  0.62010922  0.93153433  0.15603017    -0.81100
O482        O  0.51370451  0.85214297  0.05371990    -0.65800
O483        O  0.58601927  0.87532725  0.12303296    -1.12400
C484        C  0.62603345  0.94190819  0.03365176     1.05800
O485        O  0.55880923  0.84426631  0.02090421    -0.79000
O486        O  0.62408036  0.86198776  0.02050481    -0.66600
Ni487      Ni  0.57918032  0.90295406  0.16203789     1.34900
C488        C  0.63310874  0.84193260  0.04538020     0.84500
O489        O  0.52659057  0.83845287  0.12742231    -0.79500
O490        O  0.54060020  0.87470445  0.17216297    -0.89800
C491        C  0.52627025  0.84292573  0.02446849     0.84100
O492        O  0.54798212  0.93638100  0.13885584    -0.68000
O493        O  0.60144264  0.93149838  0.01317065    -0.87300
C494        C  0.51813082  0.92952730  0.12507246     0.84900
C495        C  0.52601219  0.84772668  0.15966245     1.06500
H496        H  0.55932004  0.91946509  0.06382177     0.38300
O497        O  0.57104057  0.89689093  0.06291676    -1.10000
O498        O  0.62890563  0.85229242  0.07599673    -0.66600
Ni499      Ni  0.61242217  0.89790302  0.09115691     1.26300
O500        O  0.51430393  0.90284253  0.10585712    -0.66800
O501        O  0.63814637  0.92357953  0.05906884    -0.79100
C502        C  0.65008988  0.92161110  0.14498261     0.84300
O503        O  0.65193031  0.89880726  0.12182270    -0.66300
Ni504      Ni  0.57960677  0.88743820  0.01633283     1.27400
Ni505      Ni  0.54728019  0.86577816  0.09186998     1.26100
H506        H  0.59777855  0.85376343  0.13032605     0.38900
C507        C  0.73330200  0.65802171  0.00409014     0.80000
N508        N  0.76303378  0.67623295  0.99807541    -0.78300
C509        C  0.76263473  0.71177381  0.00217646     0.82500
N510        N  0.73315780  0.72790254  0.01221683    -0.78200
C511        C  0.70380275  0.71179773  0.01779337     0.82600
N512        N  0.70330396  0.67647395  0.01343541    -0.79900
O513        O  0.84599881  0.04090445  0.54595053    -0.81100
O514        O  0.92623439  0.14980781  0.64229820    -0.65800
O515        O  0.90185055  0.07242655  0.58351956    -1.12400
C516        C  0.82893783  0.04794640  0.67526460     1.05800
O517        O  0.93265773  0.11121055  0.68362103    -0.79000
O518        O  0.91357247  0.04732075  0.69117694    -0.66600
Ni519      Ni  0.88062214  0.07622668  0.53896377     1.34900
C520        C  0.92993667  0.03209005  0.66738827     0.84500
O521        O  0.94516011  0.12788942  0.57493953    -0.79500
O522        O  0.91545428  0.10788675  0.52758767    -0.89800
C523        C  0.93415651  0.14223843  0.67403915     0.84100
O524        O  0.84848725  0.11522414  0.54779648    -0.68000
O525        O  0.84315728  0.07233726  0.69245603    -0.87300
C526        C  0.85382565  0.14322295  0.56478233     0.84900
C527        C  0.94057970  0.12446650  0.54182052     1.06500
H528        H  0.85757886  0.10850019  0.63616534     0.38300
O529        O  0.87931118  0.09500571  0.63964551    -1.10000
O530        O  0.91739591  0.03208640  0.63659981    -0.66600
Ni531      Ni  0.87383833  0.05228551  0.61643057     1.26300
O532        O  0.87773773  0.14493868  0.58882330    -0.66800
O533        O  0.84361561  0.03329180  0.64979547    -0.79100
C534        C  0.85157797  0.01191210  0.56181768     0.84300
O535        O  0.86889436  0.01099051  0.59039330    -0.66300
Ni536      Ni  0.88840899  0.09165456  0.68791897     1.27400
Ni537      Ni  0.91328816  0.11280801  0.60964239     1.26100
H538        H  0.92318642  0.05853478  0.58130929     0.38900
C539        C  0.71252607  0.99686197  0.73961480     0.80000
N540        N  0.67691114  0.99550074  0.74011800    -0.78300
C541        C  0.66186487  0.98091509  0.76760423     0.82500
N542        N  0.68315784  0.96784840  0.79450760    -0.78200
C543        C  0.71889854  0.96925005  0.79329094     0.82600
N544        N  0.73269076  0.98371449  0.76601427    -0.79900
O545        O  0.94567355  0.82199771  0.86713944    -0.81100
O546        O  0.86415859  0.91715488  0.97486709    -0.65800
O547        O  0.88984256  0.85579134  0.90054463    -1.12400
C548        C  0.95343735  0.95148322  0.86713373     1.05800
O549        O  0.85448213  0.95556210  0.93400086    -0.79000
O550        O  0.87068165  0.96263561  0.87021343    -0.66600
Ni551      Ni  0.91720061  0.81441576  0.90725744     1.34900
C552        C  0.85287495  0.93750008  0.85931664     0.84500
O553        O  0.85058267  0.84667240  0.95640894    -0.79500
O554        O  0.88801667  0.80164456  0.94398260    -0.89800
C555        C  0.85459520  0.94811145  0.96547755     0.84100
O556        O  0.95096185  0.83299572  0.94088814    -0.68000
O557        O  0.94101520  0.96954639  0.89168269    -0.87300
C558        C  0.94265464  0.84794394  0.96900282     0.84900
C559        C  0.85991920  0.81394499  0.95706677     1.06500
H560        H  0.93189980  0.91350953  0.93091821     0.38300
O561        O  0.90924929  0.91525924  0.91870509    -1.10000
O562        O  0.86625387  0.90685879  0.86037981    -0.66600
Ni563      Ni  0.91267442  0.89048713  0.87710377     1.26300
O564        O  0.91515903  0.86738174  0.97067282    -0.66800
O565        O  0.93759166  0.92556558  0.85428904    -0.79100
C566        C  0.93468788  0.83543758  0.83813893     0.84300
O567        O  0.91570334  0.86300299  0.83714592    -0.66300
Ni568      Ni  0.89730840  0.96298842  0.91330951     1.27400
Ni569      Ni  0.87812161  0.88368202  0.93906026     1.26100
H570        H  0.86844386  0.84996474  0.88792652     0.38900
O571        O  0.14465490  0.64566082  0.95093727    -0.81100
O572        O  0.05860244  0.53489756  0.86508984    -0.65800
O573        O  0.11640471  0.61095151  0.89286852    -1.12400
C574        C  0.01581507  0.64660242  0.95106032     1.05800
O575        O  0.01810222  0.57565309  0.85307303    -0.79000
O576        O  0.00770776  0.64105696  0.86802462    -0.66600
Ni577      Ni  0.15790674  0.60641950  0.92091181     1.34900
C578        C  0.03374603  0.65092570  0.85207697     0.84500
O579        O  0.13029355  0.55150417  0.85567465    -0.79500
O580        O  0.17518482  0.57013828  0.89073977    -0.89800
C581        C  0.02705878  0.54392248  0.85457938     0.84100
O582        O  0.14247757  0.57174607  0.95216158    -0.68000
O583        O  0.99827450  0.62239422  0.93705335    -0.87300
C584        C  0.12720056  0.54367876  0.94434294     0.84900
C585        C  0.16345117  0.55242939  0.86492143     1.06500
H586        H  0.05711095  0.58283714  0.93065834     0.38300
O587        O  0.05596673  0.59399232  0.90845003    -1.10000
O588        O  0.06403195  0.65084168  0.86721440    -0.66600
Ni589      Ni  0.07911344  0.63599575  0.91344872     1.26300
O590        O  0.10679455  0.54129639  0.91767674    -0.66800
O591        O  0.04103340  0.65998246  0.93598915    -0.79100
C592        C  0.13147770  0.67515953  0.94035172     0.84300
O593        O  0.10555910  0.67633010  0.91872700    -0.66300
Ni594      Ni  0.00774527  0.59898996  0.89427806     1.27400
Ni595      Ni  0.09063128  0.57134999  0.88022807     1.26100
H596        H  0.12232906  0.62245064  0.87208210     0.38900
C597        C  0.99116944  0.73538929  0.66511452     0.80000
N598        N  0.00486477  0.70752890  0.68430811    -0.78300
C599        C  0.00495474  0.70869669  0.71961065     0.82500
N600        N  0.99092723  0.73657995  0.73506692    -0.78200
C601        C  0.97664490  0.76376619  0.71753931     0.82600
N602        N  0.97672455  0.76363159  0.68218307    -0.79900
C603        C  0.90314352  0.49455580  0.71831355     0.80000
N604        N  0.92437025  0.49362288  0.74682812    -0.78300
C605        C  0.91225503  0.49237090  0.77854658     0.82500
N606        N  0.87666349  0.49235276  0.78207877    -0.78200
C607        C  0.85408373  0.49245778  0.75325958     0.82600
N608        N  0.86771583  0.49345243  0.72123177    -0.79900
C609        C  0.31673582  0.48113794  0.74229476     0.80000
N610        N  0.29685338  0.47216779  0.71348557    -0.78300
C611        C  0.26126810  0.47159989  0.71454868     0.82500
N612        N  0.24596688  0.48009090  0.74391579    -0.78200
C613        C  0.26414387  0.48944043  0.77275881     0.82600
N614        N  0.30010230  0.49030706  0.77204562    -0.79900
C615        C  0.74104777  0.84513392  0.50637324     0.80000
N616        N  0.77106029  0.86250364  0.51513955    -0.78300
C617        C  0.77093072  0.89792728  0.51173945     0.82500
N618        N  0.74124067  0.91508591  0.50013986    -0.78200
C619        C  0.71169235  0.89854674  0.49183209     0.82600
N620        N  0.71140171  0.86360649  0.49513671    -0.79900
C621        C  0.99189406  0.27591183  0.44189483     0.80000
N622        N  0.99105818  0.24579049  0.45856063    -0.78300
C623        C  0.99285450  0.21490483  0.44281804     0.82500
N624        N  0.99465071  0.21388533  0.40758905    -0.78200
C625        C  0.99577769  0.24438757  0.38926698     0.82600
N626        N  0.99482766  0.27549904  0.40693601    -0.79900
C627        C  0.98451143  0.23850684  0.78003446     0.80000
N628        N  0.00033076  0.26491093  0.76597174    -0.78300
C629        C  0.01645077  0.28927905  0.78449513     0.82500
N630        N  0.01702042  0.28767617  0.81974091    -0.78200
C631        C  0.00163982  0.26062771  0.83563342     0.82600
N632        N  0.98546057  0.23582492  0.81535758    -0.79900
C633        C  0.47276229  0.72939256  0.31581537     0.80000
N634        N  0.46694412  0.69908422  0.29787691    -0.78300
C635        C  0.46435893  0.69945318  0.26254896     0.82500
N636        N  0.46766794  0.72933614  0.24587236    -0.78200
C637        C  0.47413040  0.75908097  0.26245433     0.82600
N638        N  0.47713426  0.75923381  0.29766385    -0.79900
C639        C  0.76321766  0.99901137  0.27560963     0.80000
N640        N  0.74739891  0.98780070  0.24636699    -0.78300
C641        C  0.76537731  0.97715062  0.21911650     0.82500
N642        N  0.80122767  0.97720155  0.22105421    -0.78200
C643        C  0.81870134  0.98822087  0.25063051     0.82600
N644        N  0.79931733  0.99953306  0.27801759    -0.79900
C645        C  0.27647462  0.78133176  0.99728486     0.80000
N646        N  0.24544632  0.76757440  0.98920795    -0.78300
C647        C  0.21639945  0.78706101  0.98057409     0.82500
N648        N  0.21837126  0.82239809  0.97956696    -0.78200
C649        C  0.24984394  0.83764075  0.98746771     0.82600
N650        N  0.27892660  0.81670154  0.99678715    -0.79900
C651        C  0.73190825  0.31527829  0.50966328     0.80000
N652        N  0.76225094  0.29727548  0.52135748    -0.78300
C653        C  0.76317902  0.26166350  0.52337487     0.82500
N654        N  0.73442188  0.24466954  0.51349949    -0.78200
C655        C  0.70433248  0.26076731  0.50183963     0.82600
N656        N  0.70283192  0.29646958  0.49977565    -0.79900
C657        C  0.18251833  0.47599940  0.24994417     0.80000
N658        N  0.20107517  0.46656503  0.27996954    -0.78300
C659        C  0.23699245  0.46411703  0.28075750     0.82500
N660        N  0.25372330  0.47185076  0.25260777    -0.78200
C661        C  0.23697509  0.48227062  0.22319801     0.82600
N662        N  0.20085521  0.48438768  0.22154025    -0.79900
C663        C  0.23782580  0.37500092  0.00332765     0.80000
N664        N  0.26794490  0.39373057  0.00603032    -0.78300
C665        C  0.26574178  0.42922206  0.00615990     0.82500
N666        N  0.23396770  0.44530740  0.00355536    -0.78200
C667        C  0.20398562  0.42830984  0.00051719     0.82600
N668        N  0.20562380  0.39267299  0.99993899    -0.79900
C669        C  0.36294087  0.99546970  0.24083959     0.80000
N670        N  0.37788814  0.98944893  0.20978967    -0.78300
C671        C  0.41357783  0.98919121  0.20772506     0.82500
N672        N  0.43373107  0.99447161  0.23654433    -0.78200
C673        C  0.42024547  0.99976503  0.26759691     0.82600
N674        N  0.38446146  0.00042235  0.26989000    -0.79900
C675        C  0.49669806  0.24903157  0.17574940     0.80000
N676        N  0.49267302  0.28015558  0.19263353    -0.78300
C677        C  0.49683269  0.28148573  0.22759124     0.82500
N678        N  0.50408395  0.25227266  0.24522626    -0.78200
C679        C  0.50750593  0.22145783  0.22971006     0.82600
N680        N  0.50377803  0.21926904  0.19458920    -0.79900
C681        C  0.25532386  0.17339728  0.50446387     0.80000
N682        N  0.22858717  0.19431692  0.51690324    -0.78300
C683        C  0.23255686  0.22931854  0.52044157     0.82500
N684        N  0.26208511  0.24293551  0.51042693    -0.78200
C685        C  0.28842774  0.22384022  0.49769069     0.82600
N686        N  0.28545281  0.18858697  0.49461328    -0.79900
C687        C  0.99394443  0.71074933  0.08011551     0.80000
N688        N  0.99354126  0.70803061  0.11519697    -0.78300
C689        C  0.99050486  0.73751659  0.13519799     0.82500
N690        N  0.98816808  0.76939507  0.11932098    -0.78200
C691        C  0.98926306  0.77141042  0.08422298     0.82600
N692        N  0.99191451  0.74214800  0.06566346    -0.79900
C693        C  0.71122241  0.05810120  0.02390769     0.80000
N694        N  0.74209612  0.04010327  0.02672226    -0.78300
C695        C  0.77293511  0.05543974  0.02451929     0.82500
N696        N  0.77291272  0.09054573  0.01933143    -0.78200
C697        C  0.74186140  0.10984410  0.01736924     0.82600
N698        N  0.71086928  0.09312316  0.01901822    -0.79900
C699        C  0.06135494  0.98743741  0.73041636     0.80000
N700        N  0.09705608  0.98427912  0.72653234    -0.78300
C701        C  0.11972611  0.97953230  0.75520944     0.82500
N702        N  0.10573533  0.97724044  0.78710179    -0.78200
C703        C  0.07021236  0.98095505  0.79026611     0.82600
N704        N  0.04921895  0.98610472  0.76210038    -0.79900
C705        C  0.17899598  0.74011835  0.99740910    -0.21500
C706        C  0.18397620  0.76732030  0.97435051    -0.09500
C707        C  0.16616351  0.76654368  0.94189022     0.29300
C708        C  0.14689808  0.73744612  0.93181624    -0.21500
C709        C  0.14594605  0.70833572  0.95353841    -0.09600
C710        C  0.16087115  0.71077498  0.98706678     0.29300
F711        F  0.15949676  0.68407739  0.00939078    -0.20100
H712        H  0.19241483  0.73996400  0.02260241     0.17700
H713        H  0.13507441  0.73653762  0.90597774     0.17700
F714        F  0.17036325  0.79194838  0.91871270    -0.20100
C715        C  0.15396202  0.51307883  0.99708207    -0.21500
C716        C  0.13614792  0.51125049  0.96479385    -0.09500
C717        C  0.13249988  0.47792567  0.94973428     0.29300
C718        C  0.15065699  0.44848123  0.96418672    -0.21500
C719        C  0.17185033  0.45135155  0.99446156    -0.09600
C720        C  0.17084150  0.48352836  0.01207118     0.29300
F721        F  0.19034153  0.48744048  0.04186707    -0.20100
H722        H  0.15690744  0.53787351  0.00977222     0.17700
H723        H  0.15102735  0.42441419  0.94979510     0.17700
F724        F  0.11446685  0.47418596  0.91911019    -0.20100
C725        C  0.03773249  0.66564047  0.00924415    -0.21500
C726        C  0.00893647  0.65813261  0.98692173    -0.09500
C727        C  0.97517519  0.66033181  0.00004920     0.29300
C728        C  0.97050080  0.67250973  0.03384374    -0.21500
C729        C  0.99930768  0.68188106  0.05551524    -0.09600
C730        C  0.03309684  0.67704650  0.04302822     0.29300
F731        F  0.06148310  0.68731944  0.06218957    -0.20100
H732        H  0.06412222  0.66348223  0.00019414     0.17700
H733        H  0.94406874  0.67762506  0.04201695     0.17700
F734        F  0.94653985  0.65345899  0.97950231    -0.20100
C735        C  0.22694211  0.53995847  0.84926953    -0.21500
C736        C  0.19074489  0.53276312  0.84499066    -0.09500
C737        C  0.18131536  0.50718568  0.82109318     0.29300
C738        C  0.20646887  0.49123675  0.80065015    -0.21500
C739        C  0.24197305  0.50071884  0.80220340    -0.09600
C740        C  0.25229641  0.52426201  0.82809957     0.29300
F741        F  0.28620463  0.53339789  0.83194514    -0.20100
H742        H  0.23554794  0.55890296  0.86811619     0.17700
H743        H  0.19735840  0.47228825  0.78203407     0.17700
F744        F  0.14750293  0.49796076  0.81669855    -0.20100
C745        C  0.97417133  0.48172584  0.80093982    -0.21500
C746        C  0.93960047  0.49425752  0.80722722    -0.09500
C747        C  0.93493933  0.51610881  0.83559415     0.29300
C748        C  0.96436406  0.52870862  0.85399163    -0.21500
C749        C  0.99893677  0.51981864  0.84453409    -0.09600
C750        C  0.00357364  0.49461457  0.81910118     0.29300
F751        F  0.03620157  0.48592244  0.80872741    -0.20100
H752        H  0.97868744  0.46457626  0.77934097     0.17700
H753        H  0.96009359  0.54816233  0.87367570     0.17700
F754        F  0.90242792  0.52870521  0.84283603    -0.20100
C755        C  0.04999460  0.68697772  0.76252820    -0.21500
C756        C  0.01820466  0.68117007  0.74395562    -0.09500
C757        C  0.99305857  0.66229260  0.76042995     0.29300
C758        C  0.99831338  0.65250509  0.79520244    -0.21500
C759        C  0.02893689  0.66099301  0.81467474    -0.09600
C760        C  0.05542233  0.67706729  0.79724238     0.29300
F761        F  0.08578518  0.68537801  0.81425943    -0.20100
H762        H  0.06930575  0.70261151  0.75123719     0.17700
H763        H  0.97774926  0.63916640  0.80720096     0.17700
F764        F  0.96156540  0.65681911  0.74401542    -0.20100
C765        C  0.99757191  0.99423793  0.84965702    -0.21500
C766        C  0.98779822  0.95987831  0.85321441    -0.09500
C767        C  0.01139286  0.93303065  0.84324820     0.29300
C768        C  0.04288671  0.94049624  0.82823397    -0.21500
C769        C  0.05126429  0.97479435  0.82177794    -0.09600
C770        C  0.02859475  0.00166348  0.83357127     0.29300
F771        F  0.03442418  0.03509379  0.82590618    -0.20100
H772        H  0.98003970  0.01538644  0.85715979     0.17700
H773        H  0.05881884  0.91930694  0.81813289     0.17700
F774        F  0.00340799  0.89938055  0.84683126    -0.20100
C775        C  0.82467629  0.97061843  0.01839044    -0.21500
C776        C  0.84277571  0.97668981  0.98871945    -0.09500
C777        C  0.84485075  0.01141256  0.97753684     0.29300
C778        C  0.82582428  0.03843771  0.99294185    -0.21500
C779        C  0.80394141  0.03169677  0.01956980    -0.09600
C780        C  0.80535052  0.99787682  0.03374271     0.29300
F781        F  0.78528794  0.99047867  0.06039311    -0.20100
H782        H  0.82293234  0.94448564  0.02785759     0.17700
H783        H  0.82525734  0.06390846  0.98140524     0.17700
F784        F  0.86286754  0.01905349  0.94950928    -0.20100
C785        C  0.00709492  0.80521641  0.03486816    -0.21500
C786        C  0.98583513  0.80360496  0.06351515    -0.09500
C787        C  0.95459807  0.82393032  0.06301653     0.29300
C788        C  0.94319916  0.84211258  0.03311615    -0.21500
C789        C  0.96179441  0.83911682  0.00253840    -0.09600
C790        C  0.99495077  0.82196433  0.00439983     0.29300
F791        F  0.01426641  0.81869086  0.97612184    -0.20100
H792        H  0.03123664  0.78949397  0.03447622     0.17700
H793        H  0.91756560  0.85519975  0.03284998     0.17700
F794        F  0.93252530  0.82202144  0.08917040    -0.20100
C795        C  0.96766731  0.83437556  0.78348605    -0.21500
C796        C  0.94372015  0.81935508  0.80477196    -0.09500
C797        C  0.92538795  0.79088750  0.79218604     0.29300
C798        C  0.93231314  0.77658399  0.75989837    -0.21500
C799        C  0.95836072  0.78959803  0.73953938    -0.09600
C800        C  0.97554076  0.81922193  0.75152321     0.29300
F801        F  0.00196077  0.83171740  0.73379878    -0.20100
H802        H  0.98136739  0.85700290  0.79227663     0.17700
H803        H  0.91960629  0.75301642  0.75216451     0.17700
F804        F  0.90133447  0.77632224  0.81155258    -0.20100
C805        C  0.76210439  0.98123079  0.84051694    -0.21500
C806        C  0.74491853  0.95635515  0.82017940    -0.09500
C807        C  0.76261397  0.92417501  0.81510291     0.29300
C808        C  0.79725806  0.91794900  0.82832790    -0.21500
C809        C  0.81546399  0.94387869  0.84640552    -0.09600
C810        C  0.79677733  0.97523282  0.85353531     0.29300
F811        F  0.81220892  0.00070985  0.87220792    -0.20100
H812        H  0.74968190  0.00666492  0.84383260     0.17700
H813        H  0.81039502  0.89327727  0.82299380     0.17700
F814        F  0.74759710  0.89991041  0.79451257    -0.20100
C815        C  0.96410712  0.22436120  0.71942124    -0.21500
C816        C  0.96754754  0.21421014  0.75455824    -0.09500
C817        C  0.95760259  0.18089655  0.76276004     0.29300
C818        C  0.94614696  0.15824134  0.73642369    -0.21500
C819        C  0.94453210  0.16801952  0.70120114    -0.09600
C820        C  0.95320835  0.20169340  0.69322034     0.29300
F821        F  0.95247933  0.21247987  0.66006100    -0.20100
H822        H  0.97087712  0.24998335  0.71162106     0.17700
H823        H  0.93909057  0.13254835  0.74372311     0.17700
F824        F  0.96010116  0.16970976  0.79580091    -0.20100
C825        C  0.98537540  0.16781968  0.52677758    -0.21500
C826        C  0.96336942  0.14118600  0.51676473    -0.09500
C827        C  0.95994082  0.13308792  0.48099551     0.29300
C828        C  0.97241928  0.15512783  0.45609934    -0.21500
C829        C  0.99041308  0.18450881  0.46623967    -0.09600
C830        C  0.99956375  0.18858957  0.50190065     0.29300
F831        F  0.02019796  0.21459116  0.51301391    -0.20100
H832        H  0.99004518  0.17389726  0.55376949     0.17700
H833        H  0.96590491  0.15045130  0.42912529     0.17700
F834        F  0.94277267  0.10478877  0.46976019    -0.20100
C835        C  0.96957490  0.98419221  0.69278142    -0.21500
C836        C  0.96557171  0.01586452  0.67556499    -0.09500
C837        C  0.99606318  0.03390692  0.66927244     0.29300
C838        C  0.02938467  0.02209189  0.68296631    -0.21500
C839        C  0.03305320  0.99162893  0.70256325    -0.09600
C840        C  0.00281152  0.97189122  0.70554008     0.29300
F841        F  0.00476812  0.94247045  0.72459280    -0.20100
H842        H  0.94669488  0.96974286  0.69787464     0.17700
H843        H  0.05156758  0.03840656  0.68097032     0.17700
F844        F  0.99320723  0.06451444  0.65226014    -0.20100
C845        C  0.82244107  0.20095391  0.57927305    -0.21500
C846        C  0.83286074  0.17594759  0.55474706    -0.09500
C847        C  0.82498461  0.18360951  0.51978844     0.29300
C848        C  0.80634542  0.21440685  0.50988177    -0.21500
C849        C  0.79429200  0.23866628  0.53424251    -0.09600
C850        C  0.80263756  0.23143665  0.56927571     0.29300
F851        F  0.78931987  0.25239351  0.59394281    -0.20100
H852        H  0.82821578  0.19611112  0.60637671     0.17700
H853        H  0.79914431  0.21824717  0.48285511     0.17700
F854        F  0.83516652  0.16113879  0.49491169    -0.20100
C855        C  0.82496890  0.97704120  0.51317589    -0.21500
C856        C  0.83625504  0.97918549  0.54792740    -0.09500
C857        C  0.83212697  0.94995679  0.56903075     0.29300
C858        C  0.81433878  0.92093469  0.55616053    -0.21500
C859        C  0.80075306  0.92016450  0.52199314    -0.09600
C860        C  0.80767385  0.94802707  0.50034202     0.29300
F861        F  0.79516180  0.94837612  0.46708480    -0.20100
H862        H  0.82846583  0.99845038  0.49601391     0.17700
H863        H  0.80876610  0.90039086  0.57364050     0.17700
F864        F  0.84308375  0.95024008  0.60273843    -0.20100
C865        C  0.78507192  0.00153992  0.68056214    -0.21500
C866        C  0.79410332  0.03616640  0.68540601    -0.09500
C867        C  0.76947344  0.05935852  0.70021814     0.29300
C868        C  0.73865545  0.04721681  0.71337089    -0.21500
C869        C  0.73159310  0.01190715  0.71166975    -0.09600
C870        C  0.75423580  0.98951333  0.69365077     0.29300
F871        F  0.74845939  0.95509509  0.69225047    -0.20100
H872        H  0.80298633  0.98322981  0.66860385     0.17700
H873        H  0.72201514  0.06485044  0.72769846     0.17700
F874        F  0.77568435  0.09360622  0.70303252    -0.20100
C875        C  0.78439706  0.77219244  0.99923197    -0.21500
C876        C  0.79110056  0.73606784  0.99384183    -0.09500
C877        C  0.82258450  0.72606032  0.97874856     0.29300
C878        C  0.84552346  0.75146082  0.96846003    -0.21500
C879        C  0.83743524  0.78753315  0.97230109    -0.09600
C880        C  0.80656312  0.79730701  0.98823378     0.29300
F881        F  0.79690293  0.83122448  0.99230215    -0.20100
H882        H  0.76087586  0.78183146  0.01112041     0.17700
H883        H  0.86917878  0.74270653  0.95623946     0.17700
F884        F  0.83078477  0.69212034  0.97294337    -0.20100
C885        C  0.45352950  0.93565003  0.13677646    -0.21500
C886        C  0.48657514  0.95073062  0.13565983    -0.09500
C887        C  0.49063497  0.98314895  0.15176468     0.29300
C888        C  0.46405351  0.99789212  0.17138352    -0.21500
C889        C  0.43279677  0.98076007  0.17603947    -0.09600
C890        C  0.42687521  0.95044385  0.15684227     0.29300
F891        F  0.39719546  0.93301112  0.16061244    -0.20100
H892        H  0.44945161  0.91066204  0.12485018     0.17700
H893        H  0.46935190  0.02136345  0.18574656     0.17700
F894        F  0.52150190  0.99928708  0.15116944    -0.20100
C895        C  0.71286211  0.98745276  0.18106577    -0.21500
C896        C  0.74349829  0.96676022  0.18860039    -0.09500
C897        C  0.74510546  0.93267398  0.17590568     0.29300
C898        C  0.71496615  0.91852908  0.16007753    -0.21500
C899        C  0.68288765  0.93804009  0.15725328    -0.09600
C900        C  0.68270667  0.97322295  0.16615704     0.29300
F901        F  0.65304086  0.99359062  0.16174969    -0.20100
H902        H  0.71108779  0.01397622  0.19022275     0.17700
H903        H  0.71606908  0.89160236  0.15218949     0.17700
F904        F  0.77440713  0.91210823  0.18180817    -0.20100
C905        C  0.65406680  0.98538970  0.99691917    -0.21500
C906        C  0.64133408  0.97619764  0.02862950    -0.09500
C907        C  0.64549422  0.99919993  0.05669356     0.29300
C908        C  0.66434716  0.02938722  0.05367771    -0.21500
C909        C  0.67957056  0.03718835  0.02273211    -0.09600
C910        C  0.67348740  0.01527156  0.99410034     0.29300
F911        F  0.68946391  0.02086619  0.96435207    -0.20100
H912        H  0.65127013  0.96812388  0.97502725     0.17700
H913        H  0.66962171  0.04505318  0.07637083     0.17700
F914        F  0.63254040  0.99169967  0.08752707    -0.20100
C915        C  0.52716647  0.82446222  0.21927000    -0.21500
C916        C  0.50988102  0.82678645  0.18629426    -0.09500
C917        C  0.47750773  0.81132230  0.18119304     0.29300
C918        C  0.46400032  0.79236125  0.20791910    -0.21500
C919        C  0.48241585  0.78841439  0.24021820    -0.09600
C920        C  0.51376618  0.80552404  0.24586461     0.29300
F921        F  0.53307288  0.80144186  0.27589720    -0.20100
H922        H  0.55207646  0.83644856  0.22418011     0.17700
H923        H  0.43983042  0.77911364  0.20280821     0.17700
F924        F  0.45899237  0.81449591  0.15065756    -0.20100
C925        C  0.65735276  0.78272540  0.06561576    -0.21500
C926        C  0.64714046  0.80555843  0.03843354    -0.09500
C927        C  0.64895343  0.79249080  0.00456730     0.29300
C928        C  0.66158771  0.75838193  0.99836042    -0.21500
C929        C  0.67384653  0.73618087  0.02536588    -0.09600
C930        C  0.67108444  0.74889927  0.05922518     0.29300
F931        F  0.68514089  0.72992431  0.08608553    -0.20100
H932        H  0.65624964  0.79156946  0.09200558     0.17700
H933        H  0.66530585  0.75048708  0.97198015     0.17700
F934        F  0.64023079  0.81313993  0.97710940    -0.20100
C935        C  0.27717631  0.53618827  0.15447839    -0.21500
C936        C  0.31301717  0.52497060  0.15803077    -0.09500
C937        C  0.32216748  0.49742677  0.18016324     0.29300
C938        C  0.29630699  0.48187435  0.19845628    -0.21500
C939        C  0.26061885  0.49398704  0.19627085    -0.09600
C940        C  0.25131299  0.52117169  0.17351332     0.29300
F941        F  0.21780129  0.53431564  0.17080676    -0.20100
H942        H  0.26919625  0.55719502  0.13713801     0.17700
H943        H  0.30466831  0.46076841  0.21553319     0.17700
F944        F  0.35590198  0.48501910  0.18361876    -0.20100
C945        C  0.29313260  0.48041002  0.98271389    -0.21500
C946        C  0.29584395  0.45282659  0.00651447    -0.09500
C947        C  0.31908169  0.45601693  0.03546129     0.29300
C948        C  0.33677406  0.48708749  0.04145607    -0.21500
C949        C  0.33107864  0.51573920  0.01919668    -0.09600
C950        C  0.30987571  0.51160275  0.98919052     0.29300
F951        F  0.30345154  0.53848990  0.96721005    -0.20100
H952        H  0.27499489  0.47908096  0.96048762     0.17700
H953        H  0.35278613  0.48974842  0.06499766     0.17700
F954        F  0.32186786  0.43081003  0.05968191    -0.20100
C955        C  0.33044778  0.69791425  0.99761626    -0.21500
C956        C  0.32891275  0.68812054  0.03229101    -0.09500
C957        C  0.31789189  0.71378206  0.05593343     0.29300
C958        C  0.30609249  0.74704908  0.04475422    -0.21500
C959        C  0.30456842  0.75584577  0.00972313    -0.09600
C960        C  0.31780316  0.73102471  0.98636476     0.29300
F961        F  0.31515954  0.73760258  0.95209342    -0.20100
H962        H  0.33910032  0.67912737  0.97875971     0.17700
H963        H  0.29493302  0.76488929  0.06322478     0.17700
F964        F  0.31719907  0.70635937  0.08992478    -0.20100
C965        C  0.42341631  0.63884110  0.19815475    -0.21500
C966        C  0.45078339  0.63424449  0.17523142    -0.09500
C967        C  0.48422021  0.64528677  0.18597691     0.29300
C968        C  0.48947739  0.66193277  0.21789071    -0.21500
C969        C  0.46160784  0.66869156  0.23976528    -0.09600
C970        C  0.42849994  0.65647355  0.22966240     0.29300
F971        F  0.40039071  0.66423939  0.24871582    -0.20100
H972        H  0.39749159  0.63009031  0.19092889     0.17700
H973        H  0.51495668  0.67220158  0.22435217     0.17700
F974        F  0.51183993  0.64033017  0.16559594    -0.20100
C975        C  0.46806524  0.78900653  0.96414922    -0.21500
C976        C  0.48338995  0.79370530  0.93195422    -0.09500
C977        C  0.50855888  0.81889910  0.93033927     0.29300
C978        C  0.51930492  0.83712805  0.96025728    -0.21500
C979        C  0.50606231  0.83035084  0.99297067    -0.09600
C980        C  0.47961148  0.80647048  0.99429988     0.29300
F981        F  0.46769357  0.79715545  0.02505502    -0.20100
H982        H  0.44908629  0.76921849  0.96668737     0.17700
H983        H  0.54022191  0.85500324  0.95826040     0.17700
F984        F  0.52558480  0.82324029  0.90096564    -0.20100
C985        C  0.44974462  0.65214154  0.91854532    -0.21500
C986        C  0.47932693  0.67241758  0.92027683    -0.09500
C987        C  0.50145430  0.67082575  0.95049906     0.29300
C988        C  0.49198381  0.65287230  0.97952183    -0.21500
C989        C  0.46069699  0.63517207  0.97902468    -0.09600
C990        C  0.44056993  0.63343237  0.94745855     0.29300
F991        F  0.41056441  0.61576235  0.94504797    -0.20100
H992        H  0.43184160  0.65349696  0.89609099     0.17700
H993        H  0.50838785  0.65429586  0.00294374     0.17700
F994        F  0.53008625  0.69054999  0.95344126    -0.20100
C995        C  0.56787434  0.50515901  0.16557404    -0.21500
C996        C  0.56035919  0.48268929  0.19177349    -0.09500
C997        C  0.52565663  0.47095345  0.19258817     0.29300
C998        C  0.49838766  0.48485475  0.17033505    -0.21500
C999        C  0.50516127  0.51045756  0.14643092    -0.09600
C1000       C  0.54102442  0.51889526  0.14326921     0.29300
F1001       F  0.55048816  0.54260293  0.12021153    -0.20100
H1002       H  0.59402649  0.51477960  0.16431154     0.17700
H1003       H  0.47180026  0.47701601  0.17319308     0.17700
F1004       F  0.51762168  0.44774768  0.21674184    -0.20100
C1005       C  0.30504924  0.52457445  0.51441988    -0.21500
C1006       C  0.30383576  0.55615745  0.49610680    -0.09500
C1007       C  0.32918792  0.56113063  0.47206507     0.29300
C1008       C  0.35205732  0.53354492  0.46345335    -0.21500
C1009       C  0.35003398  0.50032860  0.47834776    -0.09600
C1010       C  0.32811102  0.49688456  0.50580353     0.29300
F1011       F  0.32621625  0.46595962  0.52172034    -0.20100
H1012       H  0.28587359  0.52027904  0.53339264     0.17700
H1013       H  0.36930331  0.53735993  0.44262392     0.17700
F1014       F  0.32885931  0.59089931  0.45364803    -0.20100
C1015       C  0.50842392  0.51012175  0.33387703    -0.21500
C1016       C  0.50334829  0.47894536  0.35093714    -0.09500
C1017       C  0.53112711  0.45358602  0.35200345     0.29300
C1018       C  0.56181407  0.45808494  0.33413213    -0.21500
C1019       C  0.56556955  0.48779552  0.31436269    -0.09600
C1020       C  0.53893425  0.51438574  0.31549744     0.29300
F1021       F  0.54089735  0.54320035  0.29598717    -0.20100
H1022       H  0.48769509  0.53011805  0.33259569     0.17700
H1023       H  0.58107972  0.43679298  0.33303243     0.17700
F1024       F  0.52783782  0.42346906  0.36906261    -0.20100
C1025       C  0.35116675  0.29620481  0.50299749    -0.21500
C1026       C  0.35109593  0.30651643  0.46847764    -0.09500
C1027       C  0.33622537  0.28430646  0.44328451     0.29300
C1028       C  0.31961696  0.25406617  0.45251661    -0.21500
C1029       C  0.31814575  0.24450243  0.48714158    -0.09600
C1030       C  0.33459806  0.26587452  0.51224267     0.29300
F1031       F  0.33260831  0.25840726  0.54611493    -0.20100
H1032       H  0.36409832  0.31158019  0.52280600     0.17700
H1033       H  0.30603246  0.23925358  0.43267900     0.17700
F1034       F  0.33775107  0.29206785  0.40942692    -0.20100
C1035       C  0.30984893  0.48319026  0.34259016    -0.21500
C1036       C  0.33135691  0.45295399  0.33936848    -0.09500
C1037       C  0.31599020  0.42356810  0.32413724     0.29300
C1038       C  0.28131452  0.42548783  0.31020253    -0.21500
C1039       C  0.26072597  0.45646806  0.31115399    -0.09600
C1040       C  0.27499524  0.48486024  0.32889313     0.29300
F1041       F  0.25642350  0.51553710  0.32956157    -0.20100
H1042       H  0.32026171  0.50595562  0.35504858     0.17700
H1043       H  0.27172040  0.40363917  0.29549758     0.17700
F1044       F  0.33500072  0.39337550  0.32082455    -0.20100
C1045       C  0.51473617  0.31767411  0.27660755    -0.21500
C1046       C  0.49025944  0.31226211  0.24894828    -0.09500
C1047       C  0.45561104  0.32495781  0.25163028     0.29300
C1048       C  0.44507443  0.33945624  0.28267569    -0.21500
C1049       C  0.46875242  0.34104591  0.31160787    -0.09600
C1050       C  0.50404506  0.33156245  0.30785198     0.29300
F1051       F  0.52790901  0.33494276  0.33450871    -0.20100
H1052       H  0.54152547  0.30757995  0.27521352     0.17700
H1053       H  0.41777137  0.34762514  0.28473768     0.17700
F1054       F  0.43108104  0.31941596  0.22595969    -0.20100
C1055       C  0.46177514  0.34565362  0.57070625    -0.21500
C1056       C  0.49020492  0.32141952  0.57170573    -0.09500
C1057       C  0.51229126  0.32086672  0.54343568     0.29300
C1058       C  0.50274471  0.33923543  0.51302720    -0.21500
C1059       C  0.47166245  0.35997237  0.51025429    -0.09600
C1060       C  0.45298134  0.36526035  0.54068533     0.29300
F1061       F  0.42387919  0.38661885  0.54049939    -0.20100
H1062       H  0.44419625  0.34689352  0.59172131     0.17700
H1063       H  0.51838052  0.33507121  0.49078429     0.17700
F1064       F  0.54105112  0.29898616  0.54362413    -0.20100
C1065       C  0.44402063  0.03196926  0.32059283    -0.21500
C1066       C  0.44646774  0.00411387  0.29726329    -0.09500
C1067       C  0.47872793  0.98471039  0.29700285     0.29300
C1068       C  0.50825182  0.99469384  0.31692442    -0.21500
C1069       C  0.50665176  0.02384402  0.33838258    -0.09600
C1070       C  0.47383079  0.04185354  0.34087438     0.29300
F1071       F  0.47137504  0.07096983  0.36040234    -0.20100
H1072       H  0.42003002  0.04787273  0.32098945     0.17700
H1073       H  0.53313613  0.98080053  0.31389329     0.17700
F1074       F  0.48259681  0.95741455  0.27519149    -0.20100
C1075       C  0.68272597  0.00312025  0.32850146    -0.21500
C1076       C  0.67294869  0.03861629  0.32709500    -0.09500
C1077       C  0.69718636  0.06123051  0.31395793     0.29300
C1078       C  0.72938938  0.04851491  0.30151891    -0.21500
C1079       C  0.73858458  0.01290915  0.30160560    -0.09600
C1080       C  0.71470301  0.99039376  0.31553534     0.29300
F1081       F  0.72120046  0.95562185  0.31431485    -0.20100
H1082       H  0.66483391  0.98491623  0.33818151     0.17700
H1083       H  0.74608095  0.06638691  0.28945866     0.17700
F1084       F  0.68957765  0.09581389  0.31262237    -0.20100
C1085       C  0.65876868  0.23584016  0.45907713    -0.21500
C1086       C  0.67525964  0.23666807  0.49222183    -0.09500
C1087       C  0.67157909  0.20760328  0.51356535     0.29300
C1088       C  0.65451348  0.17802645  0.50148712    -0.21500
C1089       C  0.63916694  0.17636330  0.46798274    -0.09600
C1090       C  0.64043170  0.20640976  0.44730310     0.29300
F1091       F  0.62502217  0.20696268  0.41515526    -0.20100
H1092       H  0.66156775  0.25715396  0.44162815     0.17700
H1093       H  0.65305631  0.15632462  0.51876639     0.17700
F1094       F  0.68612963  0.20716739  0.54612762    -0.20100
C1095       C  0.55283702  0.17864981  0.30401292    -0.21500
C1096       C  0.52411788  0.17036388  0.32313310    -0.09500
C1097       C  0.49064016  0.17081401  0.30634754     0.29300
C1098       C  0.48570753  0.18245005  0.27231149    -0.21500
C1099       C  0.51423802  0.19250190  0.25370181    -0.09600
C1100       C  0.54806283  0.18910715  0.26960272     0.29300
F1101       F  0.57635461  0.19802392  0.25235962    -0.20100
H1102       H  0.57925635  0.17556999  0.31535692     0.17700
H1103       H  0.45923353  0.18576808  0.26117119     0.17700
F1104       F  0.46281279  0.15930818  0.32276434    -0.20100
C1105       C  0.52025664  0.14415517  0.54638027    -0.21500
C1106       C  0.51552856  0.15304230  0.51099173    -0.09500
C1107       C  0.49543391  0.18322067  0.50263508     0.29300
C1108       C  0.48325628  0.20508655  0.52873503    -0.21500
C1109       C  0.49154497  0.19834286  0.56406067    -0.09600
C1110       C  0.50857296  0.16651174  0.57262054     0.29300
F1111       F  0.51645081  0.15820196  0.60601715    -0.20100
H1112       H  0.53492847  0.12064594  0.55399006     0.17700
H1113       H  0.46940540  0.22901039  0.52096817     0.17700
F1114       F  0.48998188  0.19328967  0.46940272    -0.20100
C1115       C  0.67448912  0.92859809  0.44639767    -0.21500
C1116       C  0.68047609  0.92008184  0.48120885    -0.09500
C1117       C  0.66382633  0.94030126  0.50622722     0.29300
C1118       C  0.64390207  0.97025639  0.49679011    -0.21500
C1119       C  0.63973981  0.98006693  0.46217283    -0.09600
C1120       C  0.65370495  0.95800728  0.43681196     0.29300
F1121       F  0.64963099  0.96633910  0.40297390    -0.20100
H1122       H  0.68788070  0.91387995  0.42683573     0.17700
H1123       H  0.63257537  0.98634501  0.51660300     0.17700
F1124       F  0.66917015  0.93246967  0.54006712    -0.20100
C1125       C  0.17911420  0.52384357  0.47778157    -0.21500
C1126       C  0.17816046  0.55766453  0.49205331    -0.09500
C1127       C  0.15279990  0.56612543  0.51563550     0.29300
C1128       C  0.13177372  0.54044020  0.52746064    -0.21500
C1129       C  0.13616098  0.50518876  0.51717092    -0.09600
C1130       C  0.15825232  0.49777880  0.49007858     0.29300
F1131       F  0.16148714  0.46525201  0.47705216    -0.20100
H1132       H  0.19827583  0.51682809  0.45905746     0.17700
H1133       H  0.11391315  0.54807658  0.54715917     0.17700
F1134       F  0.15142272  0.59787254  0.53076781    -0.20100
C1135       C  0.07185105  0.31800060  0.71557159    -0.21500
C1136       C  0.04702960  0.33810769  0.69537176    -0.09500
C1137       C  0.01586150  0.34926759  0.71084716     0.29300
C1138       C  0.00887195  0.33838099  0.74427507    -0.21500
C1139       C  0.03232408  0.31576284  0.76323392    -0.09600
C1140       C  0.06458210  0.30679270  0.74877237     0.29300
F1141       F  0.08720675  0.28343489  0.76486956    -0.20100
H1142       H  0.09640729  0.30932292  0.70497184     0.17700
H1143       H  0.98311083  0.34439169  0.75375968     0.17700
F1144       F  0.99066722  0.36819725  0.69271905    -0.20100
C1145       C  0.98214454  0.32336235  0.52455067    -0.21500
C1146       C  0.01248120  0.34236401  0.52632680    -0.09500
C1147       C  0.03071329  0.34662909  0.49597829     0.29300
C1148       C  0.02094782  0.32870815  0.46555122    -0.21500
C1149       C  0.99236470  0.30698958  0.46474322    -0.09600
C1150       C  0.97161488  0.30664944  0.49395953     0.29300
F1151       F  0.94343353  0.28636386  0.49429859    -0.20100
H1152       H  0.96766234  0.31981323  0.54743176     0.17700
H1153       H  0.03778164  0.32906666  0.44396681     0.17700
F1154       F  0.05994215  0.36546548  0.49661433    -0.20100
C1155       C  0.18084414  0.48653312  0.65737496    -0.21500
C1156       C  0.17543845  0.45364191  0.64333325    -0.09500
C1157       C  0.20230373  0.42757089  0.64823181     0.29300
C1158       C  0.23266709  0.43399497  0.66904884    -0.21500
C1159       C  0.23706815  0.46672618  0.68419927    -0.09600
C1160       C  0.21123608  0.49309932  0.67722988     0.29300
F1161       F  0.21441434  0.52493045  0.69170651    -0.20100
H1162       H  0.16121077  0.50731947  0.65324321     0.17700
H1163       H  0.25161316  0.41298211  0.67491188     0.17700
F1164       F  0.19836344  0.39546737  0.63459937    -0.20100
C1165       C  0.19491076  0.31548747  0.55043765    -0.21500
C1166       C  0.15955732  0.31385677  0.53995403    -0.09500
C1167       C  0.14701487  0.28147818  0.52822400     0.29300
C1168       C  0.17011838  0.25260567  0.52425143    -0.21500
C1169       C  0.20587792  0.25497760  0.53302130    -0.09600
C1170       C  0.21756959  0.28633564  0.54790768     0.29300
F1171       F  0.25149843  0.28913933  0.55936511    -0.20100
H1172       H  0.20493700  0.33916219  0.56137173     0.17700
H1173       H  0.16029626  0.22901077  0.51296140     0.17700
F1174       F  0.11240756  0.27771494  0.52001566    -0.20100
C1175       C  0.95079304  0.51535114  0.68484370    -0.21500
C1176       C  0.92129236  0.49467417  0.68564911    -0.09500
C1177       C  0.91903807  0.46642140  0.66304779     0.29300
C1178       C  0.94772702  0.45662493  0.64342365    -0.21500
C1179       C  0.97924823  0.47457679  0.64639904    -0.09600
C1180       C  0.97978777  0.50513187  0.66613421     0.29300
F1181       F  0.00924228  0.52356198  0.66990699    -0.20100
H1182       H  0.95321971  0.53718905  0.70228115     0.17700
H1183       H  0.94608391  0.43342410  0.62779707     0.17700
F1184       F  0.89112894  0.44582349  0.66313447    -0.20100
C1185       C  0.18009672  0.05286919  0.45221621    -0.21500
C1186       C  0.18238292  0.06745336  0.48536710    -0.09500
C1187       C  0.16503331  0.05079024  0.51144556     0.29300
C1188       C  0.15027416  0.01810351  0.50547279    -0.21500
C1189       C  0.15244439  0.00133534  0.47326037    -0.09600
C1190       C  0.16539056  0.02053370  0.44612704     0.29300
F1191       F  0.16515276  0.00753378  0.41365664    -0.20100
H1192       H  0.19334209  0.06472898  0.43157367     0.17700
H1193       H  0.13897935  0.00509944  0.52659698     0.17700
F1194       F  0.16516766  0.06469198  0.54354939    -0.20100
C1195       C  0.03827816  0.83770446  0.53131114    -0.21500
C1196       C  0.02775179  0.83511508  0.49587505    -0.09500
C1197       C  0.00218660  0.81122102  0.48678579     0.29300
C1198       C  0.98992374  0.78895804  0.51191038    -0.21500
C1199       C  0.00233433  0.79003718  0.54696367    -0.09600
C1200       C  0.02587863  0.81571580  0.55638860     0.29300
F1201       F  0.03906870  0.81797002  0.58929581    -0.20100
H1202       H  0.05766244  0.85604920  0.53964058     0.17700
H1203       H  0.97156361  0.76966129  0.50351345     0.17700
F1204       F  0.99068767  0.80776708  0.45345504    -0.20100
C1205       C  0.99999870  0.78200884  0.29088505    -0.21500
C1206       C  0.00599723  0.78769113  0.25563202    -0.09500
C1207       C  0.02259198  0.81789105  0.24711116     0.29300
C1208       C  0.03488555  0.84013743  0.27326751    -0.21500
C1209       C  0.03084240  0.83313336  0.30866388    -0.09600
C1210       C  0.01224535  0.80421414  0.31696211     0.29300
F1211       F  0.00602888  0.79713996  0.35017207    -0.20100
H1212       H  0.98634137  0.75960017  0.29874694     0.17700
H1213       H  0.04862431  0.86255118  0.26554448     0.17700
F1214       F  0.02805003  0.82547027  0.21384017    -0.20100
C1215       C  0.15501095  0.80307049  0.48313580    -0.21500
C1216       C  0.16484272  0.82398898  0.45596977    -0.09500
C1217       C  0.18287377  0.80748617  0.42908472     0.29300
C1218       C  0.19405689  0.77240577  0.43153609    -0.21500
C1219       C  0.18694972  0.75230368  0.46023413    -0.09600
C1220       C  0.16555385  0.76767460  0.48503818     0.29300
F1221       F  0.15785028  0.74925313  0.51305057    -0.20100
H1222       H  0.13958606  0.81425355  0.50333939     0.17700
H1223       H  0.21125032  0.76177940  0.41243910     0.17700
F1224       F  0.19149049  0.82560454  0.40113903    -0.20100
C1225       C  0.27030948  0.97029069  0.65280253    -0.21500
C1226       C  0.29790805  0.94609769  0.66177541    -0.09500
C1227       C  0.29144683  0.92057965  0.68602080     0.29300
C1228       C  0.25898848  0.92068238  0.70191432    -0.21500
C1229       C  0.23213324  0.94634115  0.69452901    -0.09600
C1230       C  0.23821409  0.97075585  0.66911495     0.29300
F1231       F  0.21465214  0.99745142  0.66272172    -0.20100
H1232       H  0.27399810  0.98971100  0.63349109     0.17700
H1233       H  0.25593935  0.90240818  0.72245698     0.17700
F1234       F  0.31629822  0.89550739  0.69433500    -0.20100
C1235       C  0.33789880  0.00858077  0.54181433    -0.21500
C1236       C  0.33283544  0.98120424  0.51824036    -0.09500
C1237       C  0.31681121  0.98887561  0.48585000     0.29300
C1238       C  0.30369845  0.02267647  0.47843545    -0.21500
C1239       C  0.30529891  0.04941094  0.50338497    -0.09600
C1240       C  0.32414484  0.04231493  0.53464368     0.29300
F1241       F  0.32547569  0.06665851  0.55986584    -0.20100
H1242       H  0.34998921  0.00318789  0.56707942     0.17700
H1243       H  0.28873170  0.02709995  0.45437226     0.17700
F1244       F  0.31139511  0.96328381  0.46239282    -0.20100
C1245       C  0.43517377  0.84150312  0.45153861    -0.21500
C1246       C  0.45368866  0.83960002  0.48395851    -0.09500
C1247       C  0.48361699  0.81711719  0.48703917     0.29300
C1248       C  0.49277757  0.79531206  0.45979395    -0.21500
C1249       C  0.47252998  0.79485766  0.42856166    -0.09600
C1250       C  0.44451240  0.81940035  0.42406967     0.29300
F1251       F  0.42439509  0.81996761  0.39434707    -0.20100
H1252       H  0.41235986  0.85890293  0.44792164     0.17700
H1253       H  0.51452476  0.77668514  0.46408799     0.17700
F1254       F  0.50316616  0.81463080  0.51705749    -0.20100
C1255       C  0.48293166  0.83169110  0.68250417    -0.21500
C1256       C  0.44768682  0.84223744  0.67544988    -0.09500
C1257       C  0.42328509  0.83560388  0.70057202     0.29300
C1258       C  0.43361835  0.81636715  0.73043295    -0.21500
C1259       C  0.46864701  0.80435286  0.73637326    -0.09600
C1260       C  0.49331347  0.81340339  0.71250435     0.29300
F1261       F  0.52736318  0.80207476  0.71700340    -0.20100
H1262       H  0.50267375  0.83740488  0.66453605     0.17700
H1263       H  0.41383368  0.80890020  0.74764356     0.17700
F1264       F  0.38910209  0.84609752  0.69544302    -0.20100
C1265       C  0.33105734  0.79197095  0.50621618    -0.21500
C1266       C  0.31700782  0.80918201  0.53467414    -0.09500
C1267       C  0.29720149  0.79016337  0.55713553     0.29300
C1268       C  0.28796643  0.75650181  0.54868425    -0.21500
C1269       C  0.29781431  0.74127582  0.51767633    -0.09600
C1270       C  0.32159406  0.75818656  0.49782586     0.29300
F1271       F  0.33250194  0.74347448  0.46826495    -0.20100
H1272       H  0.34786677  0.80522928  0.48944082     0.17700
H1273       H  0.26938965  0.74404341  0.56423757     0.17700
F1274       F  0.28547041  0.80439790  0.58664251    -0.20100
C1275       C  0.00108482  0.17154815  0.21277848    -0.21500
C1276       C  0.03420270  0.15494156  0.21110273    -0.09500
C1277       C  0.05440119  0.14946373  0.24234968     0.29300
C1278       C  0.04392456  0.16490896  0.27328536    -0.21500
C1279       C  0.01237469  0.18461468  0.27404909    -0.09600
C1280       C  0.98987288  0.18531375  0.24400058     0.29300
F1281       F  0.95866263  0.20348589  0.24388525    -0.20100
H1282       H  0.98431837  0.17495179  0.18969134     0.17700
H1283       H  0.06193234  0.16411472  0.29566873     0.17700
F1284       F  0.08573760  0.13154904  0.24259246    -0.20100
C1285       C  0.98938340  0.19416468  0.97864559    -0.21500
C1286       C  0.01129025  0.19647942  0.95052058    -0.09500
C1287       C  0.04274993  0.17625607  0.95182944     0.29300
C1288       C  0.05271273  0.15606563  0.98119411    -0.21500
C1289       C  0.03223465  0.15629927  0.01065912    -0.09600
C1290       C  0.99970463  0.17481834  0.00832006     0.29300
F1291       F  0.97878344  0.17615521  0.03552669    -0.20100
H1292       H  0.96532080  0.21000700  0.97890576     0.17700
H1293       H  0.07820608  0.14267463  0.98199910     0.17700
F1294       F  0.06581347  0.17919547  0.92667193    -0.20100
C1295       C  0.19898586  0.98764131  0.33251725    -0.21500
C1296       C  0.19597685  0.95228456  0.33836004    -0.09500
C1297       C  0.22408135  0.92918804  0.33047018     0.29300
C1298       C  0.25310617  0.94115529  0.31382428    -0.21500
C1299       C  0.25495258  0.97639510  0.30588017    -0.09600
C1300       C  0.22836965  0.99966966  0.31697184     0.29300
F1301       F  0.22909766  0.03384151  0.30932273    -0.20100
H1302       H  0.17813042  0.00590668  0.33925076     0.17700
H1303       H  0.27246169  0.92256878  0.30450604     0.17700
F1304       F  0.22218445  0.89474230  0.33641192    -0.20100
C1305       C  0.22879950  0.04920136  0.18363334    -0.21500
C1306       C  0.23833182  0.01432611  0.19071956    -0.09500
C1307       C  0.21309337  0.98939564  0.18314676     0.29300
C1308       C  0.17900096  0.99912672  0.17091331    -0.21500
C1309       C  0.16848711  0.03410636  0.16600028    -0.09600
C1310       C  0.19441234  0.05907248  0.17121514     0.29300
F1311       F  0.18644442  0.09312308  0.16530400    -0.20100
H1312       H  0.24709558  0.06912717  0.19029254     0.17700
H1313       H  0.16028363  0.97905854  0.16667569     0.17700
F1314       F  0.22032753  0.95563824  0.19123475    -0.20100
C1315       C  0.19574888  0.99325084  0.98680856    -0.21500
C1316       C  0.19310201  0.95787478  0.99566675    -0.09500
C1317       C  0.16565790  0.94914803  0.01611113     0.29300
C1318       C  0.14394113  0.97530723  0.03000316    -0.21500
C1319       C  0.14914628  0.01087492  0.02431201    -0.09600
C1320       C  0.17427696  0.01950132  0.00113529     0.29300
F1321       F  0.18055988  0.05316697  0.99505515    -0.20100
H1322       H  0.21643042  0.00097730  0.97075424     0.17700
H1323       H  0.12448754  0.96772762  0.04754537     0.17700
F1324       F  0.16204094  0.91583875  0.02569233    -0.20100
C1325       C  0.14462967  0.23509685  0.05546877    -0.21500
C1326       C  0.15291706  0.19927270  0.05010908    -0.09500
C1327       C  0.18325605  0.19071257  0.03256666     0.29300
C1328       C  0.20387815  0.21685494  0.02030663    -0.21500
C1329       C  0.19569758  0.25275236  0.02550064    -0.09600
C1330       C  0.16571639  0.26135315  0.04367746     0.29300
F1331       F  0.15710656  0.29493354  0.05081472    -0.20100
H1332       H  0.12182642  0.24309861  0.06943214     0.17700
H1333       H  0.22686257  0.20847301  0.00680619     0.17700
F1334       F  0.19341924  0.15708357  0.02746551    -0.20100
C1335       C  0.93754398  0.94679173  0.33286649    -0.21500
C1336       C  0.93823501  0.97718608  0.31341740    -0.09500
C1337       C  0.96822829  0.99740019  0.31728231     0.29300
C1338       C  0.99771555  0.98602143  0.33752637    -0.21500
C1339       C  0.99837125  0.95418261  0.35465117    -0.09600
C1340       C  0.96725269  0.93531412  0.35330588     0.29300
F1341       F  0.96665160  0.90392740  0.36868541    -0.20100
H1342       H  0.91537121  0.93027838  0.32976863     0.17700
H1343       H  0.02100891  0.00110913  0.33781407     0.17700
F1344       F  0.97034834  0.02682854  0.29872280    -0.20100
C1345       C  0.95125262  0.98210064  0.17521786    -0.21500
C1346       C  0.93303750  0.00734607  0.19453387    -0.09500
C1347       C  0.94597159  0.04092249  0.19582105     0.29300
C1348       C  0.97703121  0.04851966  0.17989122    -0.21500
C1349       C  0.99610194  0.02306222  0.16157006    -0.09600
C1350       C  0.98197930  0.98990696  0.15840708     0.29300
F1351       F  0.99901376  0.96435363  0.14099521    -0.20100
H1352       H  0.94298388  0.95562728  0.17502613     0.17700
H1353       H  0.98659149  0.07444752  0.18254678     0.17700
F1354       F  0.93009004  0.06577856  0.21512605    -0.20100
C1355       C  0.50710292  0.99205006  0.70976265    -0.21500
C1356       C  0.54295161  0.98263639  0.70592844    -0.09500
C1357       C  0.55279779  0.96865571  0.67445202     0.29300
C1358       C  0.52695543  0.96043892  0.64927913    -0.21500
C1359       C  0.49069425  0.96525260  0.65517805    -0.09600
C1360       C  0.48118407  0.98322025  0.68489346     0.29300
F1361       F  0.44693408  0.98955350  0.69145647    -0.20100
H1362       H  0.49870152  0.00382248  0.73347567     0.17700
H1363       H  0.53551328  0.94760073  0.62616366     0.17700
F1364       F  0.58683330  0.95951639  0.66932028    -0.20100
C1365       C  0.35533159  0.97483054  0.94315313    -0.21500
C1366       C  0.35326634  0.00693896  0.96095935    -0.09500
C1367       C  0.33589319  0.00800216  0.99195273     0.29300
C1368       C  0.31866986  0.97896652  0.00300006    -0.21500
C1369       C  0.31680546  0.94849213  0.98285031    -0.09600
C1370       C  0.33707282  0.94601477  0.95376571     0.29300
F1371       F  0.33572403  0.91748271  0.93332463    -0.20100
H1372       H  0.36832765  0.97291042  0.91906136     0.17700
H1373       H  0.30314222  0.98176422  0.02550045     0.17700
F1374       F  0.33292795  0.03792899  0.01016607    -0.20100
C1375       C  0.32101164  0.23977303  0.99971205    -0.21500
C1376       C  0.30685939  0.26580687  0.97732768    -0.09500
C1377       C  0.31322408  0.26299891  0.94212183     0.29300
C1378       C  0.33015208  0.23288780  0.92943018    -0.21500
C1379       C  0.33989866  0.20501907  0.95155148    -0.09600
C1380       C  0.33674297  0.20940606  0.98698251     0.29300
F1381       F  0.34744047  0.18370294  0.00916594    -0.20100
H1382       H  0.31622372  0.24124517  0.02691261     0.17700
H1383       H  0.33324359  0.23026482  0.90200439     0.17700
F1384       F  0.29980244  0.28738465  0.91964713    -0.20100
C1385       C  0.44136415  0.17502709  0.00966306    -0.21500
C1386       C  0.47006912  0.15667286  0.99578869    -0.09500
C1387       C  0.50076501  0.15139618  0.01715532     0.29300
C1388       C  0.50386027  0.16798002  0.04955151    -0.21500
C1389       C  0.47593741  0.18870390  0.06185676    -0.09600
C1390       C  0.44406138  0.19039685  0.04225715     0.29300
F1391       F  0.41657019  0.21030773  0.05308936    -0.20100
H1392       H  0.41681791  0.17851617  0.99473477     0.17700
H1393       H  0.52899715  0.16691224  0.06372750     0.17700
F1394       F  0.52847714  0.13210042  0.00604211    -0.20100
C1395       C  0.27886316  0.00280215  0.78961825    -0.21500
C1396       C  0.24395216  0.00200861  0.80076472    -0.09500
C1397       C  0.23719634  0.01615450  0.83307292     0.29300
C1398       C  0.26466377  0.03017565  0.85341394    -0.21500
C1399       C  0.29944552  0.03080665  0.84193780    -0.09600
C1400       C  0.30601007  0.01682867  0.80966514     0.29300
F1401       F  0.33836082  0.01756982  0.79676942    -0.20100
H1402       H  0.28568795  0.99286210  0.76465594     0.17700
H1403       H  0.25841387  0.04096974  0.87821316     0.17700
F1404       F  0.20442465  0.01648259  0.84506501    -0.20100
C1405       C  0.52730508  0.01790900  0.86892600    -0.21500
C1406       C  0.49236225  0.00921648  0.86035610    -0.09500
C1407       C  0.48660146  0.97947127  0.84055156     0.29300
C1408       C  0.51496505  0.96247687  0.82507901    -0.21500
C1409       C  0.54899991  0.97574241  0.82820830    -0.09600
C1410       C  0.55550050  0.00137062  0.85296478     0.29300
F1411       F  0.58786783  0.01442066  0.85739286    -0.20100
H1412       H  0.53252238  0.04014571  0.88518209     0.17700
H1413       H  0.50938259  0.94224992  0.80644808     0.17700
F1414       F  0.45348872  0.96981618  0.83220912    -0.20100
C1415       C  0.42887411  0.18557324  0.80916528    -0.21500
C1416       C  0.45544171  0.16336962  0.82436475    -0.09500
C1417       C  0.48560444  0.15656882  0.80531579     0.29300
C1418       C  0.48940996  0.17250338  0.77311800    -0.21500
C1419       C  0.46358107  0.19592542  0.75864930    -0.09600
C1420       C  0.43306026  0.20199299  0.77733427     0.29300
F1421       F  0.40856250  0.22643791  0.76636559    -0.20100
H1422       H  0.40530815  0.19163810  0.82276197     0.17700
H1423       H  0.51406632  0.16865760  0.76073294     0.17700
F1424       F  0.51209965  0.13523711  0.81816121    -0.20100
C1425       C  0.64504458  0.25459519  0.94224188    -0.21500
C1426       C  0.64380158  0.28408748  0.96380402    -0.09500
C1427       C  0.65566032  0.28066331  0.99825800     0.29300
C1428       C  0.67071005  0.24915802  0.01020366    -0.21500
C1429       C  0.67602973  0.22097609  0.98768467    -0.09600
C1430       C  0.66162857  0.22339745  0.95386859     0.29300
F1431       F  0.66722102  0.19722562  0.93110583    -0.20100
H1432       H  0.63558340  0.25648927  0.91559570     0.17700
H1433       H  0.68232260  0.24814558  0.03617272     0.17700
F1434       F  0.65425976  0.30819747  0.01999057    -0.20100
C1435       C  0.53864178  0.32213667  0.01673507    -0.21500
C1436       C  0.51070493  0.33962258  0.99830026    -0.09500
C1437       C  0.47826449  0.34386397  0.01397007     0.29300
C1438       C  0.47322600  0.32759608  0.04557939    -0.21500
C1439       C  0.50072045  0.30807447  0.06258532    -0.09600
C1440       C  0.53383000  0.30680675  0.04846824     0.29300
F1441       F  0.56056197  0.28711775  0.06343747    -0.20100
H1442       H  0.56422829  0.31917914  0.00596362     0.17700
H1443       H  0.44715975  0.32795852  0.05539705     0.17700
F1444       F  0.45079980  0.36140506  0.99772262    -0.20100
C1445       C  0.71798088  0.49791745  0.82916486    -0.21500
C1446       C  0.74673722  0.47569705  0.82092416    -0.09500
C1447       C  0.74635517  0.44087918  0.83066274     0.29300
C1448       C  0.71719345  0.42835244  0.84638958    -0.21500
C1449       C  0.68746432  0.45002379  0.85256339    -0.09600
C1450       C  0.68864769  0.48531670  0.84485046     0.29300
F1451       F  0.66163817  0.50751784  0.85238615    -0.20100
H1452       H  0.71705996  0.52465730  0.82084790     0.17700
H1453       H  0.71739769  0.40114633  0.85299622     0.17700
F1454       F  0.77245694  0.41819227  0.82167014    -0.20100
C1455       C  0.50071149  0.49202153  0.81584004    -0.21500
C1456       C  0.49444765  0.47425448  0.84588784    -0.09500
C1457       C  0.45920297  0.46874397  0.85363281     0.29300
C1458       C  0.43154370  0.47615746  0.82945395    -0.21500
C1459       C  0.43848619  0.48934124  0.79725622    -0.09600
C1460       C  0.47304380  0.49964253  0.79170793     0.29300
F1461       F  0.48086957  0.51396728  0.76138594    -0.20100
H1462       H  0.52737292  0.49632283  0.80912400     0.17700
H1463       H  0.40545368  0.46818482  0.83458175     0.17700
F1464       F  0.45203977  0.45174029  0.88275111    -0.20100
C1465       C  0.55131382  0.31237262  0.81258587    -0.21500
C1466       C  0.52493788  0.33157694  0.82927542    -0.09500
C1467       C  0.49346709  0.34038291  0.81023185     0.29300
C1468       C  0.48755873  0.32772184  0.77668401    -0.21500
C1469       C  0.51272710  0.30614044  0.76118327    -0.09600
C1470       C  0.54528225  0.29971754  0.77900592     0.29300
F1471       F  0.56993703  0.27821806  0.76523334    -0.20100
H1472       H  0.57616751  0.30584147  0.82605887     0.17700
H1473       H  0.46188976  0.33214444  0.76399506     0.17700
F1474       F  0.46784372  0.36043013  0.82425410    -0.20100
C1475       C  0.67374395  0.51270803  0.00985110    -0.21500
C1476       C  0.67025477  0.54403303  0.99111227    -0.09500
C1477       C  0.64507033  0.54590185  0.96359232     0.29300
C1478       C  0.62712097  0.51610101  0.95290004    -0.21500
C1479       C  0.63433546  0.48352697  0.96893405    -0.09600
C1480       C  0.65670734  0.48281138  0.99873700     0.29300
F1481       F  0.66477557  0.45258897  0.01546473    -0.20100
H1482       H  0.69315403  0.51019501  0.03104797     0.17700
H1483       H  0.60995399  0.51794315  0.92995257     0.17700
F1484       F  0.64075592  0.57520304  0.94458410    -0.20100
C1485       C  0.94453093  0.35241431  0.97784491    -0.21500
C1486       C  0.96206604  0.34891094  0.01059368    -0.09500
C1487       C  0.99680284  0.33537576  0.01208402     0.29300
C1488       C  0.01129242  0.32084551  0.98259480    -0.21500
C1489       C  0.99147802  0.31921283  0.95108802    -0.09600
C1490       C  0.95902190  0.33760810  0.94834137     0.29300
F1491       F  0.93920381  0.33707770  0.91845730    -0.20100
H1492       H  0.91799308  0.36342707  0.97550136     0.17700
H1493       H  0.03659706  0.30715034  0.98537233     0.17700
F1494       F  0.01568146  0.33338903  0.04252214    -0.20100
C1495       C  0.99695782  0.32640487  0.21655367    -0.21500
C1496       C  0.96103633  0.32609282  0.20683072    -0.09500
C1497       C  0.93756470  0.31689481  0.23172610     0.29300
C1498       C  0.94977845  0.30567434  0.26452991    -0.21500
C1499       C  0.98576402  0.30349012  0.27369467    -0.09600
C1500       C  0.00920234  0.31535323  0.24970468     0.29300
F1501       F  0.04425206  0.31385989  0.25760302    -0.20100
H1502       H  0.01549650  0.33480152  0.19845965     0.17700
H1503       H  0.93122683  0.29538319  0.28160320     0.17700
F1504       F  0.90263155  0.31674213  0.22349861    -0.20100
C1505       C  0.01214953  0.42606472  0.17804472    -0.21500
C1506       C  0.99619221  0.45245135  0.15708549    -0.09500
C1507       C  0.01674723  0.48047184  0.14876828     0.29300
C1508       C  0.05036618  0.48408919  0.16489835    -0.21500
C1509       C  0.06466667  0.45923146  0.18849309    -0.09600
C1510       C  0.04584093  0.42922675  0.19327999     0.29300
F1511       F  0.05828292  0.40481470  0.21623776    -0.20100
H1512       H  0.99791781  0.40336834  0.18401488     0.17700
H1513       H  0.06386397  0.50778906  0.16124324     0.17700
F1514       F  0.00363230  0.50547262  0.12686734    -0.20100
C1515       C  0.79233101  0.26195437  0.00152991    -0.21500
C1516       C  0.79758907  0.22780538  0.01477613    -0.09500
C1517       C  0.82643955  0.22141478  0.03782262     0.29300
C1518       C  0.84753524  0.24884116  0.04896565    -0.21500
C1519       C  0.84042231  0.28348266  0.03768547    -0.09600
C1520       C  0.81291915  0.28936411  0.01308524     0.29300
F1521       F  0.80554313  0.32161073  0.00040360    -0.20100
H1522       H  0.77090766  0.26809580  0.98302956     0.17700
H1523       H  0.86880688  0.24302935  0.06772008     0.17700
F1524       F  0.83322452  0.18927979  0.05100442    -0.20100
C1525       C  0.84200624  0.51304466  0.03473114    -0.21500
C1526       C  0.83501821  0.47870735  0.02397672    -0.09500
C1527       C  0.81016500  0.47463589  0.99672899     0.29300
C1528       C  0.79054259  0.50374841  0.98344089    -0.21500
C1529       C  0.79429513  0.53754571  0.99760727    -0.09600
C1530       C  0.82192900  0.54199880  0.02198187     0.29300
F1531       F  0.82704415  0.57354755  0.03638296    -0.20100
H1532       H  0.86145854  0.51732572  0.05534891     0.17700
H1533       H  0.76971892  0.49922295  0.96423521     0.17700
F1534       F  0.80205823  0.44250067  0.98551377    -0.20100
C1535       C  0.80435980  0.47391557  0.16403828    -0.21500
C1536       C  0.82184478  0.44113394  0.16585367    -0.09500
C1537       C  0.80385496  0.41365098  0.17988316     0.29300
C1538       C  0.77117153  0.41979066  0.19459507    -0.21500
C1539       C  0.75500400  0.45314639  0.19513278    -0.09600
C1540       C  0.77157853  0.47988551  0.17853291     0.29300
F1541       F  0.75784506  0.51279151  0.17967751    -0.20100
H1542       H  0.81672068  0.49547372  0.15260090     0.17700
H1543       H  0.75993055  0.39895490  0.20830757     0.17700
F1544       F  0.81860896  0.38109681  0.18125588    -0.20100
C1545       C  0.92644676  0.64591546  0.27538707    -0.21500
C1546       C  0.95050893  0.63702167  0.30279465    -0.09500
C1547       C  0.98619820  0.64250329  0.29904250     0.29300
C1548       C  0.99706424  0.65905194  0.26963211    -0.21500
C1549       C  0.97264442  0.67080394  0.24347878    -0.09600
C1550       C  0.93726350  0.66305658  0.24618365     0.29300
F1551       F  0.91266734  0.67531769  0.22248939    -0.20100
H1552       H  0.89881981  0.64150662  0.27757107     0.17700
H1553       H  0.02434263  0.66549590  0.26866016     0.17700
F1554       F  0.01043817  0.63262629  0.32412281    -0.20100
C1555       C  0.94760345  0.65039896  0.55544394    -0.21500
C1556       C  0.97838441  0.66878193  0.55333584    -0.09500
C1557       C  0.99923920  0.66225201  0.52484570     0.29300
C1558       C  0.98794238  0.64072678  0.49770279    -0.21500
C1559       C  0.95568628  0.62461278  0.49817385    -0.09600
C1560       C  0.93631995  0.62848642  0.52825042     0.29300
F1561       F  0.90459332  0.61417485  0.52991956    -0.20100
H1562       H  0.93063723  0.65540742  0.57656505     0.17700
H1563       H  0.00351233  0.63844544  0.47521402     0.17700
F1564       F  0.02936454  0.67922336  0.52184750    -0.20100
C1565       C  0.02437777  0.53093079  0.33352576    -0.21500
C1566       C  0.00326808  0.50343651  0.34224925    -0.09500
C1567       C  0.01498293  0.46953294  0.33443031     0.29300
C1568       C  0.04584786  0.46348647  0.31663088    -0.21500
C1569       C  0.06632995  0.49092096  0.30668066    -0.09600
C1570       C  0.05558940  0.52479676  0.31608120     0.29300
F1571       F  0.07365678  0.55215509  0.30589563    -0.20100
H1572       H  0.01613373  0.55737362  0.33939236     0.17700
H1573       H  0.05242399  0.43733522  0.30826613     0.17700
F1574       F  0.99501073  0.44244179  0.34135314    -0.20100
C1575       C  0.81206104  0.49171644  0.49664630    -0.21500
C1576       C  0.84097434  0.47958418  0.47861775    -0.09500
C1577       C  0.84598382  0.44295780  0.47525809     0.29300
C1578       C  0.82107564  0.41989060  0.48622386    -0.21500
C1579       C  0.79034552  0.43223030  0.50117758    -0.09600
C1580       C  0.78726715  0.46860545  0.50791455     0.29300
F1581       F  0.75927061  0.48243104  0.52414484    -0.20100
H1582       H  0.80735097  0.51930011  0.50017549     0.17700
H1583       H  0.82492371  0.39247888  0.48103720     0.17700
F1584       F  0.87434892  0.42920556  0.45955241    -0.20100
C1585       C  0.84190084  0.70200627  0.46631310    -0.21500
C1586       C  0.83237307  0.66678524  0.46669037    -0.09500
C1587       C  0.80055558  0.65928776  0.48064231     0.29300
C1588       C  0.77893792  0.68613892  0.49322511    -0.21500
C1589       C  0.78795078  0.72146860  0.49186627    -0.09600
C1590       C  0.82002167  0.72892036  0.47840862     0.29300
F1591       F  0.82998785  0.76208252  0.47603607    -0.20100
H1592       H  0.86625829  0.70924440  0.45578517     0.17700
H1593       H  0.75442588  0.67889900  0.50342336     0.17700
F1594       F  0.78977831  0.62629235  0.48144585    -0.20100
C1595       C  0.81386702  0.47854098  0.34496645    -0.21500
C1596       C  0.83026400  0.50939809  0.33704953    -0.09500
C1597       C  0.81090510  0.53387448  0.31623478     0.29300
C1598       C  0.77703527  0.52703926  0.30284525    -0.21500
C1599       C  0.76141540  0.49553053  0.30919316    -0.09600
C1600       C  0.78011702  0.47151845  0.33096304     0.29300
F1601       F  0.76693447  0.44003222  0.33638677    -0.20100
H1602       H  0.82756839  0.45931079  0.36133050     0.17700
H1603       H  0.76425536  0.54516901  0.28465411     0.17700
F1604       F  0.82550183  0.56357344  0.30680269    -0.20100
C1605       C  0.48764854  0.47127603  0.65826921    -0.21500
C1606       C  0.48093252  0.50111722  0.63848708    -0.09500
C1607       C  0.44549789  0.51290677  0.63240026     0.29300
C1608       C  0.41864927  0.49930405  0.65089941    -0.21500
C1609       C  0.42658794  0.47362764  0.67552615    -0.09600
C1610       C  0.46056537  0.45730704  0.67635211     0.29300
F1611       F  0.46880747  0.43105016  0.69869513    -0.20100
H1612       H  0.51430395  0.46108036  0.66276173     0.17700
H1613       H  0.39284769  0.51209393  0.64930328     0.17700
F1614       F  0.43729809  0.54026096  0.61134899    -0.20100
C1615       C  0.63781985  0.71194480  0.56571752    -0.21500
C1616       C  0.63297924  0.68390874  0.54286224    -0.09500
C1617       C  0.64418355  0.68642196  0.50928472     0.29300
C1618       C  0.66191507  0.71532530  0.49951681    -0.21500
C1619       C  0.67055269  0.74147064  0.52344811    -0.09600
C1620       C  0.65697332  0.74040577  0.55627364     0.29300
F1621       F  0.66543134  0.76470972  0.58023433    -0.20100
H1622       H  0.62912555  0.71056567  0.59173499     0.17700
H1623       H  0.67260271  0.71532712  0.47421831     0.17700
F1624       F  0.63956166  0.66016932  0.48639980    -0.20100
C1625       C  0.61683618  0.45618996  0.54220043    -0.21500
C1626       C  0.62107312  0.48997239  0.52944484    -0.09500
C1627       C  0.64415266  0.49335422  0.50264686     0.29300
C1628       C  0.66531960  0.46508590  0.49234631    -0.21500
C1629       C  0.66481272  0.43248686  0.50849803    -0.09600
C1630       C  0.63833759  0.42764998  0.53171052     0.29300
F1631       F  0.63540506  0.39636321  0.54664916    -0.20100
H1632       H  0.59890727  0.45229900  0.56240322     0.17700
H1633       H  0.68472395  0.46968692  0.47366811     0.17700
F1634       F  0.64901366  0.52474089  0.48853621    -0.20100
C1635       C  0.66759740  0.49639471  0.68287288    -0.21500
C1636       C  0.67466298  0.51363681  0.65279496    -0.09500
C1637       C  0.71044183  0.51863622  0.64583572     0.29300
C1638       C  0.73765068  0.50940906  0.66993923    -0.21500
C1639       C  0.73016685  0.49468911  0.70125620    -0.09600
C1640       C  0.69478870  0.48655025  0.70655601     0.29300
F1641       F  0.68580914  0.47019761  0.73543096    -0.20100
H1642       H  0.64082059  0.49148369  0.68872813     0.17700
H1643       H  0.76431882  0.51549435  0.66479392     0.17700
F1644       F  0.71944839  0.53433568  0.61661043    -0.20100
C1645       C  0.45869102  0.65401264  0.48828676    -0.21500
C1646       C  0.49209896  0.63994591  0.49786600    -0.09500
C1647       C  0.51796647  0.63866249  0.47312838     0.29300
C1648       C  0.51156460  0.65438248  0.44078303    -0.21500
C1649       C  0.47922937  0.67161030  0.43244441    -0.09600
C1650       C  0.45238922  0.66995859  0.45607304     0.29300
F1651       F  0.42117954  0.68730601  0.44946411    -0.20100
H1652       H  0.43822514  0.65487209  0.50661483     0.17700
H1653       H  0.53294132  0.65590184  0.42363187     0.17700
F1654       F  0.54999707  0.62332801  0.48082899    -0.20100
C1655       C  0.54322462  0.67231579  0.68289762    -0.21500
C1656       C  0.51643670  0.65215204  0.66810713    -0.09500
C1657       C  0.48663113  0.64768962  0.68761502     0.29300
C1658       C  0.48296207  0.66457726  0.71957064    -0.21500
C1659       C  0.50874938  0.68634102  0.73327458    -0.09600
C1660       C  0.53931234  0.68946017  0.71467323     0.29300
F1661       F  0.56433325  0.71134532  0.72600137    -0.20100
H1662       H  0.56673403  0.67608980  0.66914216     0.17700
H1663       H  0.45857195  0.66271030  0.73239062     0.17700
F1664       F  0.46037951  0.62767417  0.67550217    -0.20100
loop_ 
_geom_bond_atom_site_label_1 
_geom_bond_atom_site_label_2 
_geom_bond_distance 
_geom_bond_site_symmetry_2 
_ccdc_geom_bond_type 
O1           Ni7   1.890       .  S
O1           C22   1.263       .  A
O2          Ni25   1.889       .  S
O2           C11   1.261       .  A
O3           Ni7   1.900       .  S
O3          Ni25   1.891       .  S
O3          Ni19   1.937       .  S
O3           H26   0.966       .  S
C4           O21   1.300       .  A
C4           O13   1.279       .  A
C4         C1636   1.494       .  S
O5          Ni24   1.956       .  S
O5           C11   1.281       .  A
O6          Ni24   1.921       .  S
O6            C8   1.273       .  A
Ni7          O10   1.934       .  S
Ni7          O12   1.936       .  S
C8           O18   1.275       .  A
C8         C1626   1.509       .  S
O9          Ni25   1.929       .  S
O9           C15   1.278       .  A
O10          C15   1.277       .  A
C11        C1616   1.478       .  S
O12          C14   1.272       .  A
O13         Ni24   1.918       .  S
C14          O20   1.272       .  A
C14        C1656   1.514       .  S
C15        C1646   1.490       .  S
H16          O17   0.966       .  S
O17         Ni25   1.885       .  S
O17         Ni19   1.910       .  S
O17         Ni24   1.883       .  S
O18         Ni19   1.954       .  S
Ni19         O23   1.972       .  S
Ni19         O21   1.953       .  S
O20         Ni25   1.945       .  S
C22          O23   1.288       .  A
C22        C1606   1.493       .  S
O27         Ni33   1.909       .  S
O27          C48   1.271       .  A
O28         Ni51   1.890       .  S
O28          C37   1.262       .  A
O29         Ni33   1.902       .  S
O29         Ni51   1.911       .  S
O29         Ni45   1.943       .  S
O29          H52   0.966       .  S
C30          O47   1.304       .  A
C30          O39   1.281       .  A
C30        C1586   1.498       .  S
O31         Ni50   1.972       .  S
O31          C37   1.284       .  A
O32         Ni50   1.927       .  S
O32          C34   1.277       .  A
Ni33         O36   1.945       .  S
Ni33         O38   1.935       .  S
C34          O44   1.279       .  A
C34        C1559   1.504       .  S
O35         Ni51   1.921       .  S
O35          C41   1.268       .  A
O36          C41   1.275       .  A
C37        C1546   1.486       .  S
O38          C40   1.275       .  A
O39         Ni50   1.913       .  S
C40          O46   1.273       .  A
C40        C1596   1.506       .  S
C41        C1566   1.499   1_655  S
H42          O43   0.967       .  S
O43         Ni51   1.870       .  S
O43         Ni45   1.906       .  S
O43         Ni50   1.878       .  S
O44         Ni45   1.955       .  S
Ni45         O49   1.990       .  S
Ni45         O47   1.964       .  S
O46         Ni51   1.932       .  S
C48          O49   1.300       .  A
C48        C1576   1.518       .  S
O53         Ni59   1.893       .  S
O53          C74   1.263       .  A
O54         Ni77   1.873       .  S
O54          C63   1.260       .  A
O55         Ni59   1.887       .  S
O55         Ni77   1.882       .  S
O55         Ni71   1.932       .  S
O55          H78   0.964       .  S
C56          O73   1.306       .  A
C56          O65   1.287       .  A
C56        C1519   1.506       .  S
O57         Ni76   1.997       .  S
O57          C63   1.291       .  A
O58         Ni76   1.942       .  S
O58          C60   1.281       .  A
Ni59         O62   1.948       .  S
Ni59         O64   1.937       .  S
C60          O70   1.273       .  A
C60        C1486   1.498       .  S
O61         Ni77   1.918       .  S
O61          C67   1.272       .  A
O62          C67   1.278       .  A
C63        C1496   1.493       .  S
O64          C66   1.275       .  A
O65         Ni76   1.938       .  S
C66          O72   1.268       .  A
C66        C1536   1.506       .  S
C67        C1506   1.503       .  S
H68          O69   0.967       .  S
O69         Ni77   1.875       .  S
O69         Ni71   1.912       .  S
O69         Ni76   1.877       .  S
O70         Ni71   1.928       .  S
Ni71         O75   1.998       .  S
Ni71         O73   1.965       .  S
O72         Ni77   1.926       .  S
C74          O75   1.298       .  A
C74        C1526   1.508       .  S
C79         C507   1.540   1_556  S
C79          N80   1.387       .  A
C79          N84   1.388       .  A
N80          C81   1.377       .  A
C81        C1476   1.500       .  S
C81          N82   1.341       .  A
N82          C83   1.340       .  A
C83        C1529   1.508       .  S
C83          N84   1.381       .  A
C85        C1569   1.490       .  S
C85          N86   1.343       .  A
C85          N90   1.373       .  A
N86          C87   1.345       .  A
C87        C1509   1.484       .  S
C87          N88   1.372       .  A
N88          C89   1.379       .  A
C89         C657   1.520       .  S
C89          N90   1.381       .  A
O91         Ni97   1.886       .  S
O91         C112   1.261       .  A
O92        Ni115   1.877       .  S
O92         C101   1.261       .  A
O93         Ni97   1.891       .  S
O93        Ni115   1.880       .  S
O93        Ni109   1.940       .  S
O93         H116   0.966       .  S
C94         O111   1.303       .  A
C94         O103   1.282       .  A
C94        C1449   1.487       .  S
O95        Ni114   1.973       .  S
O95         C101   1.289       .  A
O96        Ni114   1.943       .  S
O96          C98   1.282       .  A
Ni97        O100   1.934       .  S
Ni97        O102   1.926       .  S
C98         O108   1.274       .  A
C98        C1479   1.510       .  S
O99        Ni115   1.929       .  S
O99         C105   1.277       .  A
O100        C105   1.277       .  A
C101       C1426   1.483       .  S
O102        C104   1.270       .  A
O103       Ni114   1.919       .  S
C104        O110   1.266       .  A
C104       C1466   1.496       .  S
C105       C1436   1.493       .  S
H106        O107   0.967       .  S
O107       Ni115   1.883       .  S
O107       Ni109   1.900       .  S
O107       Ni114   1.872       .  S
O108       Ni109   1.933       .  S
Ni109       O113   1.971       .  S
Ni109       O111   1.964       .  S
O110       Ni115   1.927       .  S
C112        O113   1.290       .  A
C112       C1456   1.481       .  S
O117       Ni123   1.893       .  S
O117        C138   1.267       .  A
O118       Ni141   1.880       .  S
O118        C127   1.261       .  A
O119       Ni123   1.893       .  S
O119       Ni141   1.885       .  S
O119       Ni135   1.936       .  S
O119        H142   0.966       .  S
C120        O137   1.302       .  A
C120        O129   1.282       .  A
C120       C1399   1.493       .  S
O121       Ni140   1.968       .  S
O121        C127   1.287       .  A
O122       Ni140   1.939       .  S
O122        C124   1.278       .  A
Ni123       O126   1.947       .  S
Ni123       O128   1.951       .  S
C124        O134   1.270       .  A
C124       C1366   1.506       .  S
O125       Ni141   1.921       .  S
O125        C131   1.274       .  A
O126        C131   1.278       .  A
C127       C1379   1.478       .  S
O128        C130   1.277       .  A
O129       Ni140   1.919       .  S
C130        O136   1.273       .  A
C130       C1416   1.520       .  S
C131       C1386   1.502       .  S
H132        O133   0.967       .  S
O133       Ni141   1.880       .  S
O133       Ni135   1.897       .  S
O133       Ni140   1.880       .  S
O134       Ni135   1.930       .  S
Ni135       O139   1.959       .  S
Ni135       O137   1.953       .  S
O136       Ni141   1.942       .  S
C138        O139   1.285       .  A
C138       C1406   1.485       .  S
C143       C1389   1.479       .  S
C143        N144   1.346       .  A
C143        N148   1.370       .  A
N144        C145   1.343       .  A
C145       C1439   1.474       .  S
C145        N146   1.364       .  A
N146        C147   1.373       .  A
C147        C675   1.499       .  S
C147        N148   1.376       .  A
C149       C1419   1.502       .  S
C149        N150   1.384       .  A
C149        N154   1.340       .  A
N150        C151   1.391       .  A
C151        C405   1.531       .  S
C151        N152   1.376       .  A
N152        C153   1.367       .  A
C153       C1469   1.473       .  S
C153        N154   1.341       .  A
C155        C541   1.503       .  S
C155        N156   1.374       .  A
C155        N160   1.376       .  A
N156        C157   1.369       .  A
C157       C1409   1.482       .  S
C157        N158   1.344       .  A
N158        C159   1.342       .  A
C159       C1356   1.490       .  S
C159        N160   1.368       .  A
C161       C1346   1.492   1_565  S
C161        N162   1.372       .  A
C161        N166   1.343       .  A
N162        C163   1.381       .  A
C163        C643   1.520       .  S
C163        N164   1.380       .  A
N164        C165   1.374       .  A
C165       C1336   1.493       .  S
C165        N166   1.347       .  A
C167        C663   1.521       .  S
C167        N168   1.389       .  A
C167        N172   1.374   1_554  A
N168        C169   1.383       .  A
C169       C1329   1.517       .  S
C169        N170   1.343       .  A
N170        C171   1.342   1_554  A
C171       C1376   1.477       .  S
C171        N172   1.363       .  A
C173        C649   1.521       .  S
C173        N174   1.382       .  A
C173        N178   1.379       .  A
N174        C175   1.375       .  A
C175       C1369   1.494       .  S
C175        N176   1.345       .  A
N176        C177   1.343       .  A
C177       C1316   1.499       .  S
C177        N178   1.373       .  A
C179        C669   1.512       .  S
C179        N180   1.376       .  A
C179        N184   1.383   1_565  A
N180        C181   1.367       .  A
C181       C1299   1.475       .  S
C181        N182   1.341       .  A
N182        C183   1.340   1_565  A
C183       C1306   1.489       .  S
C183        N184   1.374       .  A
C185        C631   1.524       .  S
C185        N186   1.386       .  A
C185        N190   1.378   1_455  A
N186        C187   1.379       .  A
C187       C1286   1.504       .  S
C187        N188   1.345       .  A
N188        C189   1.346   1_455  A
C189       C1489   1.488       .  S
C189        N190   1.370       .  A
C191        C625   1.521       .  S
C191        N192   1.381       .  A
C191        N196   1.382   1_655  A
N192        C193   1.371       .  A
C193       C1499   1.483       .  S
C193        N194   1.337   1_655  A
N194        C195   1.341       .  A
C195       C1279   1.487       .  S
C195        N196   1.375       .  A
O197       Ni203   1.901       .  S
O197        C218   1.266       .  A
O198       Ni221   1.871       .  S
O198        C207   1.262       .  A
O199       Ni203   1.899       .  S
O199       Ni221   1.889       .  S
O199       Ni215   1.948       .  S
O199        H222   0.967       .  S
C200        O217   1.306       .  A
C200        O209   1.287       .  A
C200       C1326   1.513       .  S
O201       Ni220   1.994       .  S
O201        C207   1.295       .  A
O202       Ni220   1.951       .  S
O202        C204   1.284       .  A
Ni203       O206   1.945       .  S
Ni203       O208   1.926       .  S
C204        O214   1.276       .  A
C204       C1289   1.516       .  S
O205       Ni221   1.944       .  S
O205        C211   1.278       .  A
O206        C211   1.278       .  A
C207       C1276   1.498       .  S
O208        C210   1.270       .  A
O209       Ni220   1.937       .  S
C210        O216   1.271       .  A
C210       C1309   1.508       .  S
C211       C1349   1.511   1_455  S
H212        O213   0.966       .  S
O213       Ni221   1.882       .  S
O213       Ni215   1.894       .  S
O213       Ni220   1.875       .  S
O214       Ni215   1.942       .  S
Ni215       O219   1.975       .  S
Ni215       O217   1.970       .  S
O216       Ni221   1.948       .  S
C218        O219   1.293       .  A
C218       C1319   1.496       .  S
O223       Ni229   1.886       .  S
O223        C244   1.260       .  A
O224       Ni247   1.911       .  S
O224        C233   1.269       .  A
O225       Ni229   1.894       .  S
O225       Ni247   1.887       .  S
O225       Ni241   1.921       .  S
O225        H248   0.965       .  S
C226        O243   1.297       .  A
C226        O235   1.280       .  A
C226       C1359   1.495       .  S
O227       Ni246   1.960       .  S
O227        C233   1.284       .  A
O228       Ni246   1.932       .  S
O228        C230   1.279       .  A
Ni229       O232   1.906       .  S
Ni229       O234   1.921       .  S
C230        O240   1.274       .  A
C230       C1256   1.501       .  S
O231       Ni247   1.932       .  S
O231        C237   1.281       .  A
O232        C237   1.277       .  A
C233       C1246   1.506       .  S
O234        C236   1.267       .  A
O235       Ni246   1.910       .  S
C236        O242   1.269       .  A
C236       C1236   1.490       .  S
C237       C1266   1.484       .  S
H238        O239   0.967       .  S
O239       Ni247   1.898       .  S
O239       Ni241   1.919       .  S
O239       Ni246   1.878       .  S
O240       Ni241   1.936       .  S
Ni241       O245   1.978       .  S
Ni241       O243   1.956       .  S
O242       Ni247   1.945       .  S
C244        O245   1.288       .  A
C244       C1226   1.499       .  S
O249       Ni255   1.904       .  S
O249        C270   1.267       .  A
O250       Ni273   1.883       .  S
O250        C259   1.259       .  A
O251       Ni255   1.904       .  S
O251       Ni273   1.903       .  S
O251       Ni267   1.936       .  S
O251        H274   0.966       .  S
C252        O269   1.302       .  A
C252        O261   1.280       .  A
C252       C1209   1.497       .  S
O253       Ni272   1.969       .  S
O253        C259   1.284       .  A
O254       Ni272   1.924       .  S
O254        C256   1.278       .  A
Ni255       O258   1.955       .  S
Ni255       O260   1.939       .  S
C256        O266   1.277       .  A
C256       C1339   1.497   1_455  S
O257       Ni273   1.933       .  S
O257        C263   1.276       .  A
O258        C263   1.278       .  A
C259       C1296   1.479       .  S
O260        C262   1.275       .  A
O261       Ni272   1.920       .  S
C262        O268   1.262       .  A
C262       C1216   1.507       .  S
C263       C1189   1.516   1_565  S
H264        O265   0.967       .  S
O265       Ni273   1.882       .  S
O265       Ni267   1.911       .  S
O265       Ni272   1.877       .  S
O266       Ni267   1.943       .  S
Ni267       O271   1.991       .  S
Ni267       O269   1.959       .  S
O268       Ni273   1.912       .  S
C270        O271   1.297       .  A
C270       C1196   1.514       .  S
C275        C597   1.528       .  S
C275        N276   1.378       .  A
C275        N280   1.385       .  A
N276        C277   1.372       .  A
C277       C1556   1.496       .  S
C277        N278   1.349       .  A
N278        C279   1.348       .  A
C279       C1199   1.514   1_655  S
C279        N280   1.381       .  A
C281       C1186   1.490       .  S
C281        N282   1.342       .  A
C281        N286   1.374       .  A
N282        C283   1.343       .  A
C283       C1239   1.492       .  S
C283        N284   1.375       .  A
N284        C285   1.382       .  A
C285        C681   1.524       .  S
C285        N286   1.383       .  A
C287       C1219   1.486       .  S
C287        N288   1.341       .  A
C287        N292   1.377       .  A
N288        C289   1.341       .  A
C289       C1269   1.462       .  S
C289        N290   1.358       .  A
N290        C291   1.370       .  A
C291        C475   1.504       .  S
C291        N292   1.383       .  A
C293        C689   1.514       .  S
C293        N294   1.377       .  A
C293        N298   1.381       .  A
N294        C295   1.369       .  A
C295       C1549   1.480       .  S
C295        N296   1.340       .  A
N296        C297   1.342       .  A
C297       C1206   1.501   1_655  S
C297        N298   1.375       .  A
C299        C701   1.526       .  S
C299        N300   1.385       .  A
C299        N304   1.386       .  A
N300        C301   1.374       .  A
C301       C1396   1.501   1_565  S
C301        N302   1.334       .  A
N302        C303   1.331       .  A
C303       C1229   1.487       .  S
C303        N304   1.377       .  A
C305        C697   1.511       .  S
C305        N306   1.386       .  A
C305        N310   1.374       .  A
N306        C307   1.379       .  A
C307       C1516   1.507       .  S
C307        N308   1.341   1_554  A
N308        C309   1.339       .  A
C309       C1429   1.471       .  S
C309        N310   1.362   1_556  A
C311        C443   1.527       .  S
C311        N312   1.384       .  A
C311        N316   1.381       .  A
N312        C313   1.375       .  A
C313       C1659   1.494       .  S
C313        N314   1.341       .  A
N314        C315   1.345       .  A
C315       C1259   1.490       .  S
C315        N316   1.375       .  A
C317        C633   1.515       .  S
C317        N318   1.380       .  A
C317        N322   1.379       .  A
N318        C319   1.370       .  A
C319       C1249   1.493       .  S
C319        N320   1.345       .  A
N320        C321   1.344       .  A
C321       C1649   1.485       .  S
C321        N322   1.372       .  A
C323        C615   1.500       .  S
C323        N324   1.380       .  A
C323        N328   1.374       .  A
N324        C325   1.376       .  A
C325       C1589   1.498       .  S
C325        N326   1.340       .  A
N326        C327   1.338       .  A
C327       C1619   1.473       .  S
C327        N328   1.361       .  A
C329        C609   1.510       .  S
C329        N330   1.379       .  A
C329        N334   1.375       .  A
N330        C331   1.370       .  A
C331       C1609   1.488       .  S
C331        N332   1.343       .  A
N332        C333   1.344       .  A
C333       C1459   1.490       .  S
C333        N334   1.371       .  A
C335       C1446   1.475       .  S
C335        N336   1.336       .  A
C335        N340   1.369       .  A
N336        C337   1.337       .  A
C337       C1639   1.494       .  S
C337        N338   1.372       .  A
N338        C339   1.380       .  A
C339        C607   1.509       .  S
C339        N340   1.378       .  A
C341        C651   1.543       .  S
C341        N342   1.389       .  A
C341        N346   1.384       .  A
N342        C343   1.382       .  A
C343       C1579   1.522       .  S
C343        N344   1.345       .  A
N344        C345   1.349       .  A
C345       C1629   1.507       .  S
C345        N346   1.377       .  A
C347       C1539   1.488       .  S
C347        N348   1.341       .  A
C347        N352   1.375       .  A
N348        C349   1.341       .  A
C349       C1599   1.485       .  S
C349        N350   1.374       .  A
N350        C351   1.381       .  A
C351        C437   1.529       .  S
C351        N352   1.383       .  A
O353       Ni359   1.956       .  S
O353        C374   1.282       .  A
O354       Ni377   1.967       .  S
O354        C363   1.290       .  A
O355       Ni359   1.876       .  S
O355       Ni377   1.913       .  S
O355       Ni371   1.898       .  S
O355        H378   0.967       .  S
C356        O373   1.287       .  A
C356        O365   1.279       .  A
C356       C1136   1.511       .  S
O357       Ni376   1.890       .  S
O357        C363   1.258       .  A
O358       Ni376   1.920       .  S
O358        C360   1.266       .  A
Ni359       O362   1.902       .  S
Ni359       O364   1.930       .  S
C360        O370   1.265       .  A
C360       C1146   1.486       .  S
O361       Ni377   1.977       .  S
O361        C367   1.301       .  A
O362        C367   1.276       .  A
C363       C1166   1.490       .  S
O364        C366   1.279       .  A
O365       Ni376   1.926       .  S
C366        O372   1.272       .  A
C366       C1156   1.488       .  S
C367       C1129   1.507       .  S
H368        O369   0.965       .  S
O369       Ni377   1.941       .  S
O369       Ni371   1.877       .  S
O369       Ni376   1.887       .  S
O370       Ni371   1.937       .  S
Ni371       O375   1.885       .  S
Ni371       O373   1.963       .  S
O372       Ni377   1.930       .  S
C374        O375   1.264       .  A
C374       C1179   1.490   1_455  S
O379       Ni385   1.965       .  S
O379        C400   1.288       .  A
O380       Ni403   1.959       .  S
O380        C389   1.286       .  A
O381       Ni385   1.885       .  S
O381       Ni403   1.901       .  S
O381       Ni397   1.914       .  S
O381        H404   0.966       .  S
C382        O399   1.291       .  A
C382        O391   1.283       .  A
C382       C1076   1.510       .  S
O383       Ni402   1.892       .  S
O383        C389   1.255       .  A
O384       Ni402   1.912       .  S
O384        C386   1.262       .  A
Ni385       O388   1.923       .  S
Ni385       O390   1.949       .  S
C386        O396   1.275       .  A
C386       C1069   1.497       .  S
O387       Ni403   1.965       .  S
O387        C393   1.299       .  A
O388        C393   1.280       .  A
C389       C1096   1.467       .  S
O390        C392   1.285       .  A
O391       Ni402   1.928       .  S
C392        O398   1.278       .  A
C392       C1089   1.518       .  S
C393       C1106   1.506       .  S
H394        O395   0.966       .  S
O395       Ni403   1.943       .  S
O395       Ni397   1.864       .  S
O395       Ni402   1.881       .  S
O396       Ni397   1.971       .  S
Ni397       O401   1.878       .  S
Ni397       O399   1.973       .  S
O398       Ni403   1.949       .  S
C400        O401   1.265       .  A
C400       C1119   1.479   1_545  S
C405        N406   1.382       .  A
C405        N410   1.388       .  A
N406        C407   1.377       .  A
C407       C1109   1.503       .  S
C407        N408   1.344       .  A
N408        C409   1.341       .  A
C409       C1056   1.505       .  S
C409        N410   1.376       .  A
O411       Ni417   1.982       .  S
O411        C432   1.290       .  A
O412       Ni435   1.980       .  S
O412        C421   1.291       .  A
O413       Ni417   1.878       .  S
O413       Ni435   1.892       .  S
O413       Ni429   1.881       .  S
O413        H436   0.967       .  S
C414        O431   1.276       .  A
C414        O423   1.280       .  A
C414       C1016   1.503       .  S
O415       Ni434   1.888       .  S
O415        C421   1.260       .  A
O416       Ni434   1.931       .  S
O416        C418   1.269       .  A
Ni417       O420   1.928       .  S
Ni417       O422   1.945       .  S
C418        O428   1.263       .  A
C418       C1036   1.504       .  S
O419       Ni435   1.974       .  S
O419        C425   1.306       .  A
O420        C425   1.283       .  A
C421       C1009   1.493       .  S
O422        C424   1.283       .  A
O423       Ni434   1.949       .  S
C424        O430   1.277       .  A
C424       C1059   1.515       .  S
C425       C1026   1.493       .  S
H426        O427   0.965       .  S
O427       Ni435   1.955       .  S
O427       Ni429   1.879       .  S
O427       Ni434   1.906       .  S
O428       Ni429   1.924       .  S
Ni429       O433   1.850       .  S
Ni429       O431   1.937       .  S
O430       Ni435   1.941       .  S
C432        O433   1.253       .  A
C432       C1049   1.475       .  S
C437        N438   1.383       .  A
C437        N442   1.380       .  A
N438        C439   1.376       .  A
C439       C1019   1.494       .  S
C439        N440   1.343       .  A
N440        C441   1.344       .  A
C441        C996   1.494       .  S
C441        N442   1.375       .  A
C443        N444   1.380       .  A
C443        N448   1.389       .  A
N444        C445   1.370       .  A
C445        C986   1.482       .  S
C445        N446   1.338       .  A
N446        C447   1.337       .  A
C447        C976   1.506       .  S
C447        N448   1.381       .  A
O449       Ni455   1.971       .  S
O449        C470   1.289       .  A
O450       Ni473   1.974       .  S
O450        C459   1.295       .  A
O451       Ni455   1.879       .  S
O451       Ni473   1.907       .  S
O451       Ni467   1.895       .  S
O451        H474   0.946       .  S
C452        O469   1.283       .  A
C452        O461   1.277       .  A
C452        C956   1.510       .  S
O453       Ni472   1.898       .  S
O453        C459   1.266       .  A
O454       Ni472   1.928       .  S
O454        C456   1.270       .  A
Ni455       O458   1.903       .  S
Ni455       O460   1.949       .  S
C456        O466   1.270       .  A
C456        C949   1.495       .  S
O457       Ni473   1.987       .  S
O457        C463   1.306       .  A
O458        C463   1.276       .  A
C459        C936   1.493       .  S
O460        C462   1.285       .  A
O461       Ni472   1.933       .  S
C462        O468   1.272       .  A
C462        C966   1.497       .  S
C463        C999   1.514       .  S
H464        O465   0.985       .  S
O465       Ni473   1.942       .  S
O465       Ni467   1.882       .  S
O465       Ni472   1.884       .  S
O466       Ni467   1.946       .  S
Ni467       O471   1.882       .  S
Ni467       O469   1.961       .  S
O468       Ni473   1.923       .  S
C470        O471   1.264       .  A
C470        C989   1.497   1_554  S
C475        N476   1.374       .  A
C475        N480   1.374       .  A
N476        C477   1.365       .  A
C477       C1006   1.485       .  S
C477        N478   1.345       .  A
N478        C479   1.347       .  A
C479       C1126   1.484       .  S
C479        N480   1.373       .  A
O481       Ni487   1.975       .  S
O481        C502   1.286       .  A
O482       Ni505   1.997       .  S
O482        C491   1.299       .  A
O483       Ni487   1.873       .  S
O483       Ni505   1.913       .  S
O483       Ni499   1.878       .  S
O483        H506   0.968       .  S
C484        O501   1.277       .  A
C484        O493   1.278       .  A
C484        C906   1.488       .  S
O485       Ni504   1.890       .  S
O485        C491   1.260       .  A
O486       Ni504   1.928       .  S
O486        C488   1.269       .  A
Ni487       O490   1.927       .  S
Ni487       O492   1.920       .  S
C488        O498   1.270       .  A
C488        C926   1.512       .  S
O489       Ni505   1.961       .  S
O489        C495   1.304       .  A
O490        C495   1.285       .  A
C491        C979   1.505   1_554  S
O492        C494   1.273       .  A
O493       Ni504   1.934       .  S
C494        O500   1.280       .  A
C494        C886   1.502       .  S
C495        C916   1.491       .  S
H496        O497   0.965       .  S
O497       Ni505   1.935       .  S
O497       Ni499   1.882       .  S
O497       Ni504   1.889       .  S
O498       Ni499   1.946       .  S
Ni499       O503   1.879       .  S
Ni499       O501   1.930       .  S
O500       Ni505   1.961       .  S
C502        O503   1.259       .  A
C502        C899   1.485       .  S
C507        N508   1.391   1_554  A
C507        N512   1.387       .  A
N508        C509   1.382   1_556  A
C509        C876   1.514   1_554  S
C509        N510   1.338       .  A
N510        C511   1.332       .  A
C511        C929   1.492       .  S
C511        N512   1.376       .  A
O513       Ni519   1.969       .  S
O513        C534   1.288       .  A
O514       Ni537   1.970       .  S
O514        C523   1.290       .  A
O515       Ni519   1.882       .  S
O515       Ni537   1.912       .  S
O515       Ni531   1.899       .  S
O515        H538   0.964       .  S
C516        O533   1.280       .  A
C516        O525   1.277       .  A
C516        C866   1.496       .  S
O517       Ni536   1.895       .  S
O517        C523   1.262       .  A
O518       Ni536   1.932       .  S
O518        C520   1.271       .  A
Ni519       O522   1.914       .  S
Ni519       O524   1.944       .  S
C520        O530   1.269       .  A
C520        C836   1.496       .  S
O521       Ni537   1.968       .  S
O521        C527   1.299       .  A
O522        C527   1.278       .  A
C523        C819   1.499       .  S
O524        C526   1.283       .  A
O525       Ni536   1.927       .  S
C526        O532   1.279       .  A
C526        C846   1.512       .  S
C527        C826   1.504       .  S
H528        O529   0.966       .  S
O529       Ni537   1.937       .  S
O529       Ni531   1.892       .  S
O529       Ni536   1.898       .  S
O530       Ni531   1.941       .  S
Ni531       O535   1.897       .  S
Ni531       O533   1.946       .  S
O532       Ni537   1.951       .  S
C534        O535   1.266       .  A
C534        C856   1.502   1_545  S
C539        C869   1.473   1_565  S
C539        N540   1.365       .  A
C539        N544   1.343       .  A
N540        C541   1.373       .  A
C541        N542   1.379       .  A
N542        C543   1.372       .  A
C543        C806   1.482       .  S
C543        N544   1.343       .  A
O545       Ni551   1.976       .  S
O545        C566   1.289       .  A
O546       Ni569   1.974       .  S
O546        C555   1.286       .  A
O547       Ni551   1.886       .  S
O547       Ni569   1.902       .  S
O547       Ni563   1.892       .  S
O547        H570   0.967       .  S
C548        O565   1.278       .  A
C548        O557   1.279       .  A
C548        C766   1.493       .  S
O549       Ni568   1.891       .  S
O549        C555   1.260       .  A
O550       Ni568   1.919       .  S
O550        C552   1.268       .  A
Ni551       O554   1.934       .  S
Ni551       O556   1.947       .  S
C552        O562   1.271       .  A
C552        C809   1.502       .  S
O553       Ni569   1.953       .  S
O553        C559   1.300       .  A
O554        C559   1.283       .  A
C555        C776   1.493       .  S
O556        C558   1.282       .  A
O557       Ni568   1.932       .  S
C558        O564   1.270       .  A
C558        C789   1.499   1_556  S
C559        C879   1.503       .  S
H560        O561   0.967       .  S
O561       Ni569   1.937       .  S
O561       Ni563   1.884       .  S
O561       Ni568   1.892       .  S
O562       Ni563   1.941       .  S
Ni563       O567   1.884       .  S
Ni563       O565   1.933       .  S
O564       Ni569   1.918       .  S
C566        O567   1.264       .  A
C566        C796   1.486       .  S
O571       Ni577   1.974       .  S
O571        C592   1.289       .  A
O572       Ni595   1.973       .  S
O572        C581   1.288       .  A
O573       Ni577   1.883       .  S
O573       Ni595   1.903       .  S
O573       Ni589   1.896       .  S
O573        H596   0.966       .  S
C574        O591   1.280       .  A
C574        O583   1.277   1_455  A
C574        C726   1.495       .  S
O575       Ni594   1.886       .  S
O575        C581   1.261       .  A
O576       Ni594   1.925       .  S
O576        C578   1.271       .  A
Ni577       O580   1.939       .  S
Ni577       O582   1.943       .  S
C578        O588   1.272       .  A
C578        C759   1.510       .  S
O579       Ni595   1.958       .  S
O579        C585   1.301       .  A
O580        C585   1.285       .  A
C581        C749   1.487   1_455  S
O582        C584   1.281       .  A
O583       Ni594   1.933   1_655  S
C584        O590   1.272       .  A
C584        C716   1.507       .  S
C585        C736   1.508       .  S
H586        O587   0.966       .  S
O587       Ni595   1.939       .  S
O587       Ni589   1.885       .  S
O587       Ni594   1.899       .  S
O588       Ni589   1.945       .  S
Ni589       O593   1.897       .  S
Ni589       O591   1.936       .  S
O590       Ni595   1.931       .  S
C592        O593   1.267       .  A
C592        C709   1.495       .  S
C597        N598   1.384   1_655  A
C597        N602   1.384       .  A
N598        C599   1.374       .  A
C599        C756   1.485       .  S
C599        N600   1.337   1_455  A
N600        C601   1.339       .  A
C601        C799   1.486       .  S
C601        N602   1.376       .  A
C603       C1176   1.478       .  S
C603        N604   1.342       .  A
C603        N608   1.366       .  A
N604        C605   1.341       .  A
C605        C746   1.495       .  S
C605        N606   1.373       .  A
N606        C607   1.381       .  A
C607        N608   1.376       .  A
C609        N610   1.374       .  A
C609        N614   1.385       .  A
N610        C611   1.363       .  A
C611       C1159   1.480       .  S
C611        N612   1.342       .  A
N612        C613   1.346       .  A
C613        C739   1.510       .  S
C613        N614   1.377       .  A
C615        N616   1.380       .  A
C615        N620   1.368       .  A
N616        C617   1.376       .  A
C617        C859   1.493       .  S
C617        N618   1.350       .  A
N618        C619   1.345       .  A
C619       C1116   1.470       .  S
C619        N620   1.358       .  A
C621       C1149   1.491       .  S
C621        N622   1.338       .  A
C621        N626   1.371       .  A
N622        C623   1.339       .  A
C623        C829   1.500       .  S
C623        N624   1.376       .  A
N624        C625   1.385       .  A
C625        N626   1.382       .  A
C627        C816   1.504       .  S
C627        N628   1.340   1_655  A
C627        N632   1.378       .  A
N628        C629   1.335       .  A
C629       C1139   1.487       .  S
C629        N630   1.373       .  A
N630        C631   1.384       .  A
C631        N632   1.384   1_455  A
C633        N634   1.381       .  A
C633        N638   1.376       .  A
N634        C635   1.374       .  A
C635        C969   1.483       .  S
C635        N636   1.342       .  A
N636        C637   1.341       .  A
C637        C919   1.484       .  S
C637        N638   1.370       .  A
C639       C1079   1.497   1_565  S
C639        N640   1.340       .  A
C639        N644   1.378       .  A
N640        C641   1.345       .  A
C641        C896   1.482       .  S
C641        N642   1.368       .  A
N642        C643   1.376       .  A
C643        N644   1.386       .  A
C645        C959   1.491   1_556  S
C645        N646   1.342       .  A
C645        N650   1.375       .  A
N646        C647   1.345       .  A
C647        C706   1.490       .  S
C647        N648   1.372       .  A
N648        C649   1.381       .  A
C649        N650   1.382       .  A
C651        N652   1.386       .  A
C651        N656   1.390       .  A
N652        C653   1.378       .  A
C653        C849   1.500       .  S
C653        N654   1.342       .  A
N654        C655   1.344       .  A
C655       C1086   1.510       .  S
C655        N656   1.381       .  A
C657        N658   1.380       .  A
C657        N662   1.384       .  A
N658        C659   1.370       .  A
C659       C1039   1.479       .  S
C659        N660   1.336       .  A
N660        C661   1.339       .  A
C661        C939   1.500       .  S
C661        N662   1.377       .  A
C663        N664   1.384       .  A
C663        N668   1.383   1_554  A
N664        C665   1.371       .  A
C665        C946   1.496       .  S
C665        N666   1.340       .  A
N666        C667   1.343       .  A
C667        C719   1.496   1_554  S
C667        N668   1.376   1_554  A
C669        N670   1.376       .  A
C669        N674   1.382   1_565  A
N670        C671   1.369       .  A
C671        C889   1.493       .  S
C671        N672   1.348       .  A
N672        C673   1.348       .  A
C673       C1066   1.504   1_565  S
C673        N674   1.373   1_565  A
C675        N676   1.374       .  A
C675        N680   1.378       .  A
N676        C677   1.363       .  A
C677       C1046   1.467       .  S
C677        N678   1.337       .  A
N678        C679   1.337       .  A
C679       C1099   1.468       .  S
C679        N680   1.370       .  A
C681        N682   1.381       .  A
C681        N686   1.385       .  A
N682        C683   1.373       .  A
C683       C1169   1.490       .  S
C683        N684   1.340       .  A
N684        C685   1.336       .  A
C685       C1029   1.490       .  S
C685        N686   1.376       .  A
C687        C729   1.480       .  S
C687        N688   1.371       .  A
C687        N692   1.338       .  A
N688        C689   1.381       .  A
C689        N690   1.379       .  A
N690        C691   1.371       .  A
C691        C786   1.484       .  S
C691        N692   1.341       .  A
C693        C909   1.480       .  S
C693        N694   1.344       .  A
C693        N698   1.368       .  A
N694        C695   1.347       .  A
C695        C779   1.487       .  S
C695        N696   1.373       .  A
N696        C697   1.374       .  A
C697        N698   1.376       .  A
C699        C839   1.498       .  S
C699        N700   1.380       .  A
C699        N704   1.340       .  A
N700        C701   1.387       .  A
C701        N702   1.380       .  A
N702        C703   1.370       .  A
C703        C769   1.480       .  S
C703        N704   1.337       .  A
C705        C706   1.411       .  A
C705        C710   1.400       .  A
C705        H712   1.084   1_556  S
C706        C707   1.406       .  A
C707        C708   1.412       .  A
C707        F714   1.357       .  S
C708        C709   1.414       .  A
C708        H713   1.083       .  S
C709        C710   1.403       .  A
C710        F711   1.357   1_556  S
C715        C716   1.402       .  A
C715        C720   1.404   1_556  A
C715        H722   1.083   1_556  S
C716        C717   1.421       .  A
C717        C718   1.413       .  A
C717        F724   1.357       .  S
C718        C719   1.403       .  A
C718        H723   1.083       .  S
C719        C720   1.417   1_556  A
C720        F721   1.358       .  S
C725        C726   1.407   1_554  A
C725        C730   1.402       .  A
C725        H732   1.084       .  S
C726        C727   1.409   1_456  A
C727        C728   1.411       .  A
C727        F734   1.357   1_554  S
C728        C729   1.411       .  A
C728        H733   1.083       .  S
C729        C730   1.406   1_655  A
C730        F731   1.357       .  S
C735        C736   1.423       .  A
C735        C740   1.417       .  A
C735        H742   1.083       .  S
C736        C737   1.399       .  A
C737        C738   1.399       .  A
C737        F744   1.356       .  S
C738        C739   1.418       .  A
C738        H743   1.083       .  S
C739        C740   1.407       .  A
C740        F741   1.357       .  S
C745        C746   1.420       .  A
C745        C750   1.405   1_655  A
C745        H752   1.084       .  S
C746        C747   1.400       .  A
C747        C748   1.406       .  A
C747        F754   1.357       .  S
C748        C749   1.416       .  A
C748        H753   1.084       .  S
C749        C750   1.397   1_655  A
C750        F751   1.357       .  S
C755        C756   1.408       .  A
C755        C760   1.410       .  A
C755        H762   1.083       .  S
C756        C757   1.410   1_455  A
C757        C758   1.410       .  A
C757        F764   1.358       .  S
C758        C759   1.411   1_655  A
C758        H763   1.083       .  S
C759        C760   1.412       .  A
C760        F761   1.356       .  S
C765        C766   1.404       .  A
C765        C770   1.407   1_665  A
C765        H772   1.083   1_565  S
C766        C767   1.411   1_655  A
C767        C768   1.404       .  A
C767        F774   1.358       .  S
C768        C769   1.403       .  A
C768        H773   1.084       .  S
C769        C770   1.414   1_565  A
C770        F771   1.358       .  S
C775        C776   1.400   1_554  A
C775        C780   1.408       .  A
C775        H782   1.083       .  S
C776        C777   1.420   1_565  A
C777        C778   1.397       .  A
C777        F784   1.358       .  S
C778        C779   1.395   1_556  A
C778        H783   1.083       .  S
C779        C780   1.420   1_545  A
C780        F781   1.358       .  S
C785        C786   1.414   1_455  A
C785        C790   1.404   1_455  A
C785        H792   1.084       .  S
C786        C787   1.401       .  A
C787        C788   1.404       .  A
C787        F794   1.357       .  S
C788        C789   1.417       .  A
C788        H793   1.083       .  S
C789        C790   1.404       .  A
C790        F791   1.357   1_654  S
C795        C796   1.408       .  A
C795        C800   1.412       .  A
C795        H802   1.083       .  S
C796        C797   1.402       .  A
C797        C798   1.403       .  A
C797        F804   1.358       .  S
C798        C799   1.412       .  A
C798        H803   1.084       .  S
C799        C800   1.409       .  A
C800        F801   1.356   1_655  S
C805        C806   1.405       .  A
C805        C810   1.405       .  A
C805        H812   1.084   1_565  S
C806        C807   1.409       .  A
C807        C808   1.408       .  A
C807        F814   1.357       .  S
C808        C809   1.409       .  A
C808        H813   1.083       .  S
C809        C810   1.414       .  A
C810        F811   1.358   1_565  S
C815        C816   1.423       .  A
C815        C820   1.400       .  A
C815        H822   1.083       .  S
C816        C817   1.400       .  A
C817        C818   1.409       .  A
C817        F824   1.357       .  S
C818        C819   1.422       .  A
C818        H823   1.083       .  S
C819        C820   1.397       .  A
C820        F821   1.357       .  S
C825        C826   1.397       .  A
C825        C830   1.404       .  A
C825        H832   1.083       .  S
C826        C827   1.426       .  A
C827        C828   1.407       .  A
C827        F834   1.358       .  S
C828        C829   1.397       .  A
C828        H833   1.083       .  S
C829        C830   1.424       .  A
C830        F831   1.358   1_655  S
C835        C836   1.398   1_565  A
C835        C840   1.406   1_655  A
C835        H842   1.083       .  S
C836        C837   1.414       .  A
C837        C838   1.415   1_655  A
C837        F844   1.357       .  S
C838        C839   1.405   1_545  A
C838        H843   1.083       .  S
C839        C840   1.420       .  A
C840        F841   1.359       .  S
C845        C846   1.414       .  A
C845        C850   1.419       .  A
C845        H852   1.083       .  S
C846        C847   1.410       .  A
C847        C848   1.408       .  A
C847        F854   1.357       .  S
C848        C849   1.410       .  A
C848        H853   1.084       .  S
C849        C850   1.412       .  A
C850        F851   1.357       .  S
C855        C856   1.402       .  A
C855        C860   1.402       .  A
C855        H862   1.083       .  S
C856        C857   1.419       .  A
C857        C858   1.412       .  A
C857        F864   1.358       .  S
C858        C859   1.404       .  A
C858        H863   1.083       .  S
C859        C860   1.413       .  A
C860        F861   1.358       .  S
C865        C866   1.405       .  A
C865        C870   1.403   1_545  A
C865        H872   1.083   1_545  S
C866        C867   1.414       .  A
C867        C868   1.405       .  A
C867        F874   1.357       .  S
C868        C869   1.403       .  A
C868        H873   1.083       .  S
C869        C870   1.407   1_545  A
C870        F871   1.358       .  S
C875        C876   1.425       .  A
C875        C880   1.397       .  A
C875        H882   1.082   1_556  S
C876        C877   1.403       .  A
C877        C878   1.415       .  A
C877        F884   1.356       .  S
C878        C879   1.424       .  A
C878        H883   1.083       .  S
C879        C880   1.396       .  A
C880        F881   1.358       .  S
C885        C886   1.415       .  A
C885        C890   1.413       .  A
C885        H892   1.083       .  S
C886        C887   1.409       .  A
C887        C888   1.401       .  A
C887        F894   1.358       .  S
C888        C889   1.409       .  A
C888        H893   1.084   1_565  S
C889        C890   1.406       .  A
C890        F891   1.357       .  S
C895        C896   1.410       .  A
C895        C900   1.396       .  A
C895        H902   1.084   1_565  S
C896        C897   1.404       .  A
C897        C898   1.408       .  A
C897        F904   1.357       .  S
C898        C899   1.412       .  A
C898        H903   1.083       .  S
C899        C900   1.401       .  A
C900        F901   1.357       .  S
C905        C906   1.401   1_556  A
C905        C910   1.406   1_565  A
C905        H912   1.083       .  S
C906        C907   1.411       .  A
C907        C908   1.405   1_565  A
C907        F914   1.358       .  S
C908        C909   1.402       .  A
C908        H913   1.083       .  S
C909        C910   1.412   1_554  A
C910        F911   1.357       .  S
C915        C916   1.416       .  A
C915        C920   1.400       .  A
C915        H922   1.084       .  S
C916        C917   1.400       .  A
C917        C918   1.406       .  A
C917        F924   1.356       .  S
C918        C919   1.416       .  A
C918        H923   1.083       .  S
C919        C920   1.399       .  A
C920        F921   1.358       .  S
C925        C926   1.412       .  A
C925        C930   1.414       .  A
C925        H932   1.083       .  S
C926        C927   1.413       .  A
C927        C928   1.409   1_554  A
C927        F934   1.358   1_554  S
C928        C929   1.411   1_556  A
C928        H933   1.084       .  S
C929        C930   1.411       .  A
C930        F931   1.357       .  S
C935        C936   1.419       .  A
C935        C940   1.409       .  A
C935        H942   1.083       .  S
C936        C937   1.396       .  A
C937        C938   1.402       .  A
C937        F944   1.357       .  S
C938        C939   1.422       .  A
C938        H943   1.083       .  S
C939        C940   1.402       .  A
C940        F941   1.357       .  S
C945        C946   1.414   1_556  A
C945        C950   1.404       .  A
C945        H952   1.084       .  S
C946        C947   1.408       .  A
C947        C948   1.415       .  A
C947        F954   1.357       .  S
C948        C949   1.413       .  A
C948        H953   1.083       .  S
C949        C950   1.401   1_554  A
C950        F951   1.357       .  S
C955        C956   1.408   1_556  A
C955        C960   1.413       .  A
C955        H962   1.083       .  S
C956        C957   1.414       .  A
C957        C958   1.409       .  A
C957        F964   1.357       .  S
C958        C959   1.405       .  A
C958        H963   1.083       .  S
C959        C960   1.413   1_554  A
C960        F961   1.357       .  S
C965        C966   1.412       .  A
C965        C970   1.409       .  A
C965        H972   1.083       .  S
C966        C967   1.407       .  A
C967        C968   1.405       .  A
C967        F974   1.357       .  S
C968        C969   1.410       .  A
C968        H973   1.084       .  S
C969        C970   1.405       .  A
C970        F971   1.357       .  S
C975        C976   1.424       .  A
C975        C980   1.411       .  A
C975        H982   1.083       .  S
C976        C977   1.400       .  A
C977        C978   1.410       .  A
C977        F984   1.357       .  S
C978        C979   1.422       .  A
C978        H983   1.083       .  S
C979        C980   1.399       .  A
C980        F981   1.357   1_556  S
C985        C986   1.400       .  A
C985        C990   1.407       .  A
C985        H992   1.083       .  S
C986        C987   1.415       .  A
C987        C988   1.399       .  A
C987        F994   1.359       .  S
C988        C989   1.401       .  A
C988        H993   1.083   1_556  S
C989        C990   1.420       .  A
C990        F991   1.357       .  S
C995        C996   1.391       .  A
C995       C1000   1.400       .  A
C995       H1002   1.084       .  S
C996        C997   1.420       .  A
C997        C998   1.412       .  A
C997       F1004   1.358       .  S
C998        C999   1.403       .  A
C998       H1003   1.083       .  S
C999       C1000   1.432       .  A
C1000      F1001   1.358       .  S
C1005      C1006   1.415       .  A
C1005      C1010   1.407       .  A
C1005      H1012   1.083       .  S
C1006      C1007   1.399       .  A
C1007      C1008   1.400       .  A
C1007      F1014   1.358       .  S
C1008      C1009   1.418       .  A
C1008      H1013   1.084       .  S
C1009      C1010   1.400       .  A
C1010      F1011   1.356       .  S
C1015      C1016   1.404       .  A
C1015      C1020   1.413       .  A
C1015      H1022   1.083       .  S
C1016      C1017   1.414       .  A
C1017      C1018   1.409       .  A
C1017      F1024   1.357       .  S
C1018      C1019   1.402       .  A
C1018      H1023   1.083       .  S
C1019      C1020   1.418       .  A
C1020      F1021   1.358       .  S
C1025      C1026   1.403       .  A
C1025      C1030   1.412       .  A
C1025      H1032   1.083       .  S
C1026      C1027   1.413       .  A
C1027      C1028   1.409       .  A
C1027      F1034   1.358       .  S
C1028      C1029   1.404       .  A
C1028      H1033   1.083       .  S
C1029      C1030   1.416       .  A
C1030      F1031   1.358       .  S
C1035      C1036   1.409       .  A
C1035      C1040   1.409       .  A
C1035      H1042   1.083       .  S
C1036      C1037   1.414       .  A
C1037      C1038   1.406       .  A
C1037      F1044   1.358       .  S
C1038      C1039   1.407       .  A
C1038      H1043   1.084       .  S
C1039      C1040   1.408       .  A
C1040      F1041   1.357       .  S
C1045      C1046   1.411       .  A
C1045      C1050   1.399       .  A
C1045      H1052   1.084       .  S
C1046      C1047   1.401       .  A
C1047      C1048   1.399       .  A
C1047      F1054   1.358       .  S
C1048      C1049   1.412       .  A
C1048      H1053   1.084       .  S
C1049      C1050   1.397       .  A
C1050      F1051   1.357       .  S
C1055      C1056   1.404       .  A
C1055      C1060   1.415       .  A
C1055      H1062   1.083       .  S
C1056      C1057   1.418       .  A
C1057      C1058   1.409       .  A
C1057      F1064   1.358       .  S
C1058      C1059   1.405       .  A
C1058      H1063   1.083       .  S
C1059      C1060   1.422       .  A
C1060      F1061   1.357       .  S
C1065      C1066   1.407       .  A
C1065      C1070   1.418       .  A
C1065      H1072   1.083       .  S
C1066      C1067   1.416   1_545  A
C1067      C1068   1.403       .  A
C1067      F1074   1.358       .  S
C1068      C1069   1.400   1_565  A
C1068      H1073   1.083       .  S
C1069      C1070   1.416       .  A
C1070      F1071   1.357       .  S
C1075      C1076   1.408       .  A
C1075      C1080   1.413   1_545  A
C1075      H1082   1.083   1_545  S
C1076      C1077   1.414       .  A
C1077      C1078   1.412       .  A
C1077      F1084   1.357       .  S
C1078      C1079   1.406       .  A
C1078      H1083   1.083       .  S
C1079      C1080   1.415   1_545  A
C1080      F1081   1.358       .  S
C1085      C1086   1.408       .  A
C1085      C1090   1.422       .  A
C1085      H1092   1.083       .  S
C1086      C1087   1.417       .  A
C1087      C1088   1.406       .  A
C1087      F1094   1.359       .  S
C1088      C1089   1.406       .  A
C1088      H1093   1.083       .  S
C1089      C1090   1.421       .  A
C1090      F1091   1.356       .  S
C1095      C1096   1.404       .  A
C1095      C1100   1.402       .  A
C1095      H1102   1.084       .  S
C1096      C1097   1.407       .  A
C1097      C1098   1.403       .  A
C1097      F1104   1.358       .  S
C1098      C1099   1.407       .  A
C1098      H1103   1.084       .  S
C1099      C1100   1.407       .  A
C1100      F1101   1.357       .  S
C1105      C1106   1.423       .  A
C1105      C1110   1.411       .  A
C1105      H1112   1.083       .  S
C1106      C1107   1.401       .  A
C1107      C1108   1.402       .  A
C1107      F1114   1.357       .  S
C1108      C1109   1.419       .  A
C1108      H1113   1.083       .  S
C1109      C1110   1.402       .  A
C1110      F1111   1.357       .  S
C1115      C1116   1.402       .  A
C1115      C1120   1.401       .  A
C1115      H1122   1.083       .  S
C1116      C1117   1.405       .  A
C1117      C1118   1.400       .  A
C1117      F1124   1.357       .  S
C1118      C1119   1.402       .  A
C1118      H1123   1.083       .  S
C1119      C1120   1.411       .  A
C1120      F1121   1.358       .  S
C1125      C1126   1.417       .  A
C1125      C1130   1.410       .  A
C1125      H1132   1.083       .  S
C1126      C1127   1.395       .  A
C1127      C1128   1.396       .  A
C1127      F1134   1.358       .  S
C1128      C1129   1.424       .  A
C1128      H1133   1.083       .  S
C1129      C1130   1.403       .  A
C1130      F1131   1.356       .  S
C1135      C1136   1.412       .  A
C1135      C1140   1.409       .  A
C1135      H1142   1.083       .  S
C1136      C1137   1.411       .  A
C1137      C1138   1.411       .  A
C1137      F1144   1.357   1_455  S
C1138      C1139   1.411       .  A
C1138      H1143   1.084   1_455  S
C1139      C1140   1.409       .  A
C1140      F1141   1.358       .  S
C1145      C1146   1.396   1_655  A
C1145      C1150   1.401       .  A
C1145      H1152   1.083       .  S
C1146      C1147   1.414       .  A
C1147      C1148   1.411       .  A
C1147      F1154   1.357       .  S
C1148      C1149   1.403   1_455  A
C1148      H1153   1.083       .  S
C1149      C1150   1.418       .  A
C1150      F1151   1.358       .  S
C1155      C1156   1.400       .  A
C1155      C1160   1.394       .  A
C1155      H1162   1.083       .  S
C1156      C1157   1.415       .  A
C1157      C1158   1.412       .  A
C1157      F1164   1.358       .  S
C1158      C1159   1.406       .  A
C1158      H1163   1.083       .  S
C1159      C1160   1.407       .  A
C1160      F1161   1.358       .  S
C1165      C1166   1.395       .  A
C1165      C1170   1.398       .  A
C1165      H1172   1.083       .  S
C1166      C1167   1.423       .  A
C1167      C1168   1.406       .  A
C1167      F1174   1.358       .  S
C1168      C1169   1.398       .  A
C1168      H1173   1.083       .  S
C1169      C1170   1.420       .  A
C1170      F1171   1.358       .  S
C1175      C1176   1.410       .  A
C1175      C1180   1.397       .  A
C1175      H1182   1.084       .  S
C1176      C1177   1.401       .  A
C1177      C1178   1.404       .  A
C1177      F1184   1.357       .  S
C1178      C1179   1.414       .  A
C1178      H1183   1.083       .  S
C1179      C1180   1.405       .  A
C1180      F1181   1.358   1_655  S
C1185      C1186   1.405       .  A
C1185      C1190   1.405       .  A
C1185      H1192   1.084       .  S
C1186      C1187   1.412       .  A
C1187      C1188   1.418       .  A
C1187      F1194   1.357       .  S
C1188      C1189   1.412       .  A
C1188      H1193   1.083       .  S
C1189      C1190   1.415       .  A
C1190      F1191   1.357       .  S
C1195      C1196   1.422       .  A
C1195      C1200   1.410       .  A
C1195      H1202   1.083       .  S
C1196      C1197   1.403       .  A
C1197      C1198   1.416   1_455  A
C1197      F1204   1.357   1_455  S
C1198      C1199   1.423   1_655  A
C1198      H1203   1.083       .  S
C1199      C1200   1.402       .  A
C1200      F1201   1.357       .  S
C1205      C1206   1.422   1_655  A
C1205      C1210   1.401   1_655  A
C1205      H1212   1.083       .  S
C1206      C1207   1.400       .  A
C1207      C1208   1.405       .  A
C1207      F1214   1.357       .  S
C1208      C1209   1.423       .  A
C1208      H1213   1.083       .  S
C1209      C1210   1.397       .  A
C1210      F1211   1.357       .  S
C1215      C1216   1.409       .  A
C1215      C1220   1.411       .  A
C1215      H1222   1.083       .  S
C1216      C1217   1.415       .  A
C1217      C1218   1.407       .  A
C1217      F1224   1.358       .  S
C1218      C1219   1.408       .  A
C1218      H1223   1.084       .  S
C1219      C1220   1.408       .  A
C1220      F1221   1.356       .  S
C1225      C1226   1.412       .  A
C1225      C1230   1.407       .  A
C1225      H1232   1.083       .  S
C1226      C1227   1.406       .  A
C1227      C1228   1.412       .  A
C1227      F1234   1.357       .  S
C1228      C1229   1.417       .  A
C1228      H1233   1.084       .  S
C1229      C1230   1.405       .  A
C1230      F1231   1.357       .  S
C1235      C1236   1.410   1_545  A
C1235      C1240   1.410       .  A
C1235      H1242   1.083       .  S
C1236      C1237   1.402       .  A
C1237      C1238   1.406   1_565  A
C1237      F1244   1.357       .  S
C1238      C1239   1.415       .  A
C1238      H1243   1.084       .  S
C1239      C1240   1.406       .  A
C1240      F1241   1.356       .  S
C1245      C1246   1.417       .  A
C1245      C1250   1.415       .  A
C1245      H1252   1.083       .  S
C1246      C1247   1.408       .  A
C1247      C1248   1.400       .  A
C1247      F1254   1.357       .  S
C1248      C1249   1.409       .  A
C1248      H1253   1.084       .  S
C1249      C1250   1.406       .  A
C1250      F1251   1.357       .  S
C1255      C1256   1.405       .  A
C1255      C1260   1.401       .  A
C1255      H1262   1.083       .  S
C1256      C1257   1.415       .  A
C1257      C1258   1.414       .  A
C1257      F1264   1.357       .  S
C1258      C1259   1.407       .  A
C1258      H1263   1.083       .  S
C1259      C1260   1.411       .  A
C1260      F1261   1.359       .  S
C1265      C1266   1.406       .  A
C1265      C1270   1.402       .  A
C1265      H1272   1.083       .  S
C1266      C1267   1.412       .  A
C1267      C1268   1.395       .  A
C1267      F1274   1.358       .  S
C1268      C1269   1.401       .  A
C1268      H1273   1.084       .  S
C1269      C1270   1.404       .  A
C1270      F1271   1.357       .  S
C1275      C1276   1.399       .  A
C1275      C1280   1.403   1_455  A
C1275      H1282   1.083   1_455  S
C1276      C1277   1.420       .  A
C1277      C1278   1.409       .  A
C1277      F1284   1.358       .  S
C1278      C1279   1.400       .  A
C1278      H1283   1.083       .  S
C1279      C1280   1.417   1_455  A
C1280      F1281   1.358       .  S
C1285      C1286   1.415   1_655  A
C1285      C1290   1.411   1_556  A
C1285      H1292   1.084       .  S
C1286      C1287   1.405       .  A
C1287      C1288   1.415       .  A
C1287      F1294   1.357       .  S
C1288      C1289   1.419   1_556  A
C1288      H1293   1.083       .  S
C1289      C1290   1.407   1_455  A
C1290      F1291   1.357       .  S
C1295      C1296   1.397       .  A
C1295      C1300   1.398       .  A
C1295      H1302   1.083   1_565  S
C1296      C1297   1.412       .  A
C1297      C1298   1.407       .  A
C1297      F1304   1.358       .  S
C1298      C1299   1.404       .  A
C1298      H1303   1.083       .  S
C1299      C1300   1.411       .  A
C1300      F1301   1.357   1_565  S
C1305      C1306   1.407       .  A
C1305      C1310   1.415       .  A
C1305      H1312   1.083       .  S
C1306      C1307   1.411   1_545  A
C1307      C1308   1.402       .  A
C1307      F1314   1.358       .  S
C1308      C1309   1.406   1_565  A
C1308      H1313   1.083       .  S
C1309      C1310   1.418       .  A
C1310      F1311   1.357       .  S
C1315      C1316   1.421       .  A
C1315      C1320   1.408   1_566  A
C1315      H1322   1.083   1_565  S
C1316      C1317   1.400   1_556  A
C1317      C1318   1.404       .  A
C1317      F1324   1.357       .  S
C1318      C1319   1.417   1_565  A
C1318      H1323   1.083       .  S
C1319      C1320   1.400       .  A
C1320      F1321   1.357   1_554  S
C1325      C1326   1.424       .  A
C1325      C1330   1.414       .  A
C1325      H1332   1.082       .  S
C1326      C1327   1.401       .  A
C1327      C1328   1.406       .  A
C1327      F1334   1.357       .  S
C1328      C1329   1.425       .  A
C1328      H1333   1.082       .  S
C1329      C1330   1.403       .  A
C1330      F1331   1.356       .  S
C1335      C1336   1.403       .  A
C1335      C1340   1.411       .  A
C1335      H1342   1.083       .  S
C1336      C1337   1.415       .  A
C1337      C1338   1.400       .  A
C1337      F1344   1.358   1_565  S
C1338      C1339   1.402       .  A
C1338      H1343   1.083   1_665  S
C1339      C1340   1.419       .  A
C1340      F1341   1.357       .  S
C1345      C1346   1.410   1_565  A
C1345      C1350   1.415       .  A
C1345      H1352   1.083       .  S
C1346      C1347   1.407       .  A
C1347      C1348   1.407       .  A
C1347      F1354   1.358       .  S
C1348      C1349   1.411       .  A
C1348      H1353   1.083       .  S
C1349      C1350   1.413   1_545  A
C1350      F1351   1.357       .  S
C1355      C1356   1.417       .  A
C1355      C1360   1.401       .  A
C1355      H1362   1.083   1_565  S
C1356      C1357   1.398       .  A
C1357      C1358   1.401       .  A
C1357      F1364   1.357       .  S
C1358      C1359   1.419       .  A
C1358      H1363   1.083       .  S
C1359      C1360   1.401       .  A
C1360      F1361   1.357       .  S
C1365      C1366   1.419   1_565  A
C1365      C1370   1.412       .  A
C1365      H1372   1.083       .  S
C1366      C1367   1.404       .  A
C1367      C1368   1.404   1_546  A
C1367      F1374   1.357   1_556  S
C1368      C1369   1.414   1_554  A
C1368      H1373   1.084       .  S
C1369      C1370   1.403       .  A
C1370      F1371   1.357       .  S
C1375      C1376   1.408       .  A
C1375      C1380   1.396       .  A
C1375      H1382   1.084   1_556  S
C1376      C1377   1.406       .  A
C1377      C1378   1.407       .  A
C1377      F1384   1.357       .  S
C1378      C1379   1.409       .  A
C1378      H1383   1.083       .  S
C1379      C1380   1.399       .  A
C1380      F1381   1.357   1_556  S
C1385      C1386   1.409   1_554  A
C1385      C1390   1.399       .  A
C1385      H1392   1.083   1_554  S
C1386      C1387   1.412   1_556  A
C1387      C1388   1.413       .  A
C1387      F1394   1.356       .  S
C1388      C1389   1.408       .  A
C1388      H1393   1.083       .  S
C1389      C1390   1.404       .  A
C1390      F1391   1.358       .  S
C1395      C1396   1.424       .  A
C1395      C1400   1.393       .  A
C1395      H1402   1.082   1_545  S
C1396      C1397   1.400       .  A
C1397      C1398   1.408       .  A
C1397      F1404   1.357       .  S
C1398      C1399   1.423       .  A
C1398      H1403   1.083       .  S
C1399      C1400   1.394       .  A
C1400      F1401   1.358       .  S
C1405      C1406   1.413       .  A
C1405      C1410   1.399       .  A
C1405      H1412   1.084       .  S
C1406      C1407   1.399   1_545  A
C1407      C1408   1.403       .  A
C1407      F1414   1.357       .  S
C1408      C1409   1.417       .  A
C1408      H1413   1.084       .  S
C1409      C1410   1.399   1_565  A
C1410      F1411   1.357       .  S
C1415      C1416   1.411       .  A
C1415      C1420   1.414       .  A
C1415      H1422   1.083       .  S
C1416      C1417   1.415       .  A
C1417      C1418   1.416       .  A
C1417      F1424   1.357       .  S
C1418      C1419   1.410       .  A
C1418      H1423   1.083       .  S
C1419      C1420   1.415       .  A
C1420      F1421   1.358       .  S
C1425      C1426   1.412       .  A
C1425      C1430   1.406       .  A
C1425      H1432   1.083       .  S
C1426      C1427   1.400       .  A
C1427      C1428   1.397   1_556  A
C1427      F1434   1.357   1_556  S
C1428      C1429   1.409   1_554  A
C1428      H1433   1.084       .  S
C1429      C1430   1.404       .  A
C1430      F1431   1.358       .  S
C1435      C1436   1.408   1_554  A
C1435      C1440   1.396       .  A
C1435      H1442   1.084       .  S
C1436      C1437   1.411   1_556  A
C1437      C1438   1.410       .  A
C1437      F1444   1.357   1_554  S
C1438      C1439   1.408       .  A
C1438      H1443   1.083       .  S
C1439      C1440   1.402       .  A
C1440      F1441   1.358       .  S
C1445      C1446   1.414       .  A
C1445      C1450   1.407       .  A
C1445      H1452   1.084       .  S
C1446      C1447   1.401       .  A
C1447      C1448   1.402       .  A
C1447      F1454   1.358       .  S
C1448      C1449   1.412       .  A
C1448      H1453   1.084       .  S
C1449      C1450   1.402       .  A
C1450      F1451   1.357       .  S
C1455      C1456   1.395       .  A
C1455      C1460   1.402       .  A
C1455      H1462   1.083       .  S
C1456      C1457   1.419       .  A
C1457      C1458   1.402       .  A
C1457      F1464   1.358       .  S
C1458      C1459   1.397       .  A
C1458      H1463   1.083       .  S
C1459      C1460   1.421       .  A
C1460      F1461   1.358       .  S
C1465      C1466   1.409       .  A
C1465      C1470   1.405       .  A
C1465      H1472   1.083       .  S
C1466      C1467   1.411       .  A
C1467      C1468   1.403       .  A
C1467      F1474   1.357       .  S
C1468      C1469   1.403       .  A
C1468      H1473   1.084       .  S
C1469      C1470   1.408       .  A
C1470      F1471   1.358       .  S
C1475      C1476   1.415   1_554  A
C1475      C1480   1.405   1_554  A
C1475      H1482   1.084       .  S
C1476      C1477   1.404       .  A
C1477      C1478   1.415       .  A
C1477      F1484   1.356       .  S
C1478      C1479   1.419       .  A
C1478      H1483   1.083       .  S
C1479      C1480   1.406       .  A
C1480      F1481   1.358   1_556  S
C1485      C1486   1.415   1_556  A
C1485      C1490   1.407       .  A
C1485      H1492   1.083       .  S
C1486      C1487   1.405       .  A
C1487      C1488   1.403   1_654  A
C1487      F1494   1.357   1_655  S
C1488      C1489   1.412   1_455  A
C1488      H1493   1.084       .  S
C1489      C1490   1.403       .  A
C1490      F1491   1.357       .  S
C1495      C1496   1.406       .  A
C1495      C1500   1.413   1_655  A
C1495      H1502   1.083   1_655  S
C1496      C1497   1.409       .  A
C1497      C1498   1.403       .  A
C1497      F1504   1.357       .  S
C1498      C1499   1.402       .  A
C1498      H1503   1.084       .  S
C1499      C1500   1.416   1_655  A
C1500      F1501   1.358       .  S
C1505      C1506   1.410   1_455  A
C1505      C1510   1.400       .  A
C1505      H1512   1.083   1_455  S
C1506      C1507   1.412   1_655  A
C1507      C1508   1.413       .  A
C1507      F1514   1.356       .  S
C1508      C1509   1.408       .  A
C1508      H1513   1.083       .  S
C1509      C1510   1.408       .  A
C1510      F1511   1.359       .  S
C1515      C1516   1.423       .  A
C1515      C1520   1.404       .  A
C1515      H1522   1.083   1_554  S
C1516      C1517   1.401       .  A
C1517      C1518   1.411       .  A
C1517      F1524   1.357       .  S
C1518      C1519   1.423       .  A
C1518      H1523   1.083       .  S
C1519      C1520   1.399       .  A
C1520      F1521   1.357       .  S
C1525      C1526   1.421       .  A
C1525      C1530   1.409       .  A
C1525      H1532   1.083       .  S
C1526      C1527   1.401   1_554  A
C1527      C1528   1.412       .  A
C1527      F1534   1.357       .  S
C1528      C1529   1.425       .  A
C1528      H1533   1.083       .  S
C1529      C1530   1.400   1_556  A
C1530      F1531   1.357       .  S
C1535      C1536   1.408       .  A
C1535      C1540   1.408       .  A
C1535      H1542   1.083       .  S
C1536      C1537   1.415       .  A
C1537      C1538   1.409       .  A
C1537      F1544   1.358       .  S
C1538      C1539   1.407       .  A
C1538      H1543   1.083       .  S
C1539      C1540   1.410       .  A
C1540      F1541   1.357       .  S
C1545      C1546   1.408       .  A
C1545      C1550   1.407       .  A
C1545      H1552   1.083       .  S
C1546      C1547   1.403       .  A
C1547      C1548   1.403       .  A
C1547      F1554   1.357   1_655  S
C1548      C1549   1.411       .  A
C1548      H1553   1.084   1_655  S
C1549      C1550   1.405       .  A
C1550      F1551   1.357       .  S
C1555      C1556   1.405       .  A
C1555      C1560   1.414       .  A
C1555      H1562   1.083       .  S
C1556      C1557   1.412       .  A
C1557      C1558   1.403       .  A
C1557      F1564   1.358   1_655  S
C1558      C1559   1.404       .  A
C1558      H1563   1.083   1_655  S
C1559      C1560   1.419       .  A
C1560      F1561   1.357       .  S
C1565      C1566   1.413       .  A
C1565      C1570   1.411       .  A
C1565      H1572   1.083       .  S
C1566      C1567   1.404       .  A
C1567      C1568   1.407       .  A
C1567      F1574   1.357   1_455  S
C1568      C1569   1.410       .  A
C1568      H1573   1.084       .  S
C1569      C1570   1.408       .  A
C1570      F1571   1.358       .  S
C1575      C1576   1.400       .  A
C1575      C1580   1.415       .  A
C1575      H1582   1.083       .  S
C1576      C1577   1.427       .  A
C1577      C1578   1.413       .  A
C1577      F1584   1.358       .  S
C1578      C1579   1.400       .  A
C1578      H1583   1.083       .  S
C1579      C1580   1.430       .  A
C1580      F1581   1.358       .  S
C1585      C1586   1.424       .  A
C1585      C1590   1.401       .  A
C1585      H1592   1.082       .  S
C1586      C1587   1.397       .  A
C1587      C1588   1.401       .  A
C1587      F1594   1.357       .  S
C1588      C1589   1.424       .  A
C1588      H1593   1.082       .  S
C1589      C1590   1.397       .  A
C1590      F1591   1.357       .  S
C1595      C1596   1.412       .  A
C1595      C1600   1.411       .  A
C1595      H1602   1.083       .  S
C1596      C1597   1.411       .  A
C1597      C1598   1.406       .  A
C1597      F1604   1.357       .  S
C1598      C1599   1.406       .  A
C1598      H1603   1.084       .  S
C1599      C1600   1.409       .  A
C1600      F1601   1.358       .  S
C1605      C1606   1.398       .  A
C1605      C1610   1.407       .  A
C1605      H1612   1.083       .  S
C1606      C1607   1.419       .  A
C1607      C1608   1.403       .  A
C1607      F1614   1.358       .  S
C1608      C1609   1.398       .  A
C1608      H1613   1.083       .  S
C1609      C1610   1.418       .  A
C1610      F1611   1.357       .  S
C1615      C1616   1.410       .  A
C1615      C1620   1.406       .  A
C1615      H1622   1.083       .  S
C1616      C1617   1.400       .  A
C1617      C1618   1.394       .  A
C1617      F1624   1.358       .  S
C1618      C1619   1.409       .  A
C1618      H1623   1.084       .  S
C1619      C1620   1.404       .  A
C1620      F1621   1.357       .  S
C1625      C1626   1.418       .  A
C1625      C1630   1.418       .  A
C1625      H1632   1.083       .  S
C1626      C1627   1.408       .  A
C1627      C1628   1.401       .  A
C1627      F1634   1.358       .  S
C1628      C1629   1.413       .  A
C1628      H1633   1.084       .  S
C1629      C1630   1.407       .  A
C1630      F1631   1.356       .  S
C1635      C1636   1.394       .  A
C1635      C1640   1.397       .  A
C1635      H1642   1.083       .  S
C1636      C1637   1.427       .  A
C1637      C1638   1.402       .  A
C1637      F1644   1.358       .  S
C1638      C1639   1.395       .  A
C1638      H1643   1.083       .  S
C1639      C1640   1.425       .  A
C1640      F1641   1.358       .  S
C1645      C1646   1.401       .  A
C1645      C1650   1.406       .  A
C1645      H1652   1.083       .  S
C1646      C1647   1.412       .  A
C1647      C1648   1.407       .  A
C1647      F1654   1.358       .  S
C1648      C1649   1.403       .  A
C1648      H1653   1.083       .  S
C1649      C1650   1.414       .  A
C1650      F1651   1.358       .  S
C1655      C1656   1.410       .  A
C1655      C1660   1.411       .  A
C1655      H1662   1.083       .  S
C1656      C1657   1.416       .  A
C1657      C1658   1.412       .  A
C1657      F1664   1.356       .  S
C1658      C1659   1.405       .  A
C1658      H1663   1.083       .  S
C1659      C1660   1.413       .  A
C1660      F1661   1.358       .  S
