geometry optimzed in LAMMPS
_audit_creation_date              2020-11-30 
_audit_creation_method            'lammps2cif' 
_symmetry_space_group_name_H-M    'P1' 
_symmetry_Int_Tables_number       1 
_symmetry_cell_setting            triclinic 
loop_ 
_symmetry_equiv_pos_as_xyz 
  x,y,z 
_cell_length_a                    20.717829505295676 
_cell_length_b                    21.5717890960821 
_cell_length_c                    22.418182333392995 
_cell_angle_alpha                 90.1872286085204 
_cell_angle_beta                  90.59899038313684 
_cell_angle_gamma                 89.73556212636355 
loop_ 
_atom_site_label 
_atom_site_type_symbol 
_atom_site_fract_x 
_atom_site_fract_y 
_atom_site_fract_z 
_atom_site_charge 
O1          O  0.35716297  0.54244430  0.16328127    -0.55460
C2          C  0.28596376  0.67424638  0.26553878     0.77170
O3          O  0.17106595  0.62516028  0.10754384    -0.56620
C4          C  0.34698601  0.53487035  0.10795486     0.77140
C5          C  0.15198486  0.52862088  0.26023267     0.79530
Cd6        Cd  0.24721724  0.58225362  0.18429746     1.37460
O7          O  0.32930094  0.63584348  0.25007383    -0.55460
O8          O  0.21069085  0.52998508  0.27641023    -0.54270
C9          C  0.19667087  0.67830954  0.11166170     0.79490
O10         O  0.14016517  0.53779392  0.20547207    -0.56640
O11         O  0.22990698  0.66659973  0.24447627    -0.55090
O12         O  0.28889162  0.53778256  0.09019823    -0.55080
O13         O  0.24442805  0.68436203  0.14624789    -0.54250
O14         O  0.35646829  0.05935232  0.45643739    -0.55460
C15         C  0.27925760  0.91552497  0.36100098     0.77170
O16         O  0.17469778  0.95803184  0.50687587    -0.56620
C17         C  0.34716080  0.06754220  0.51174417     0.77140
C18         C  0.15165489  0.06865244  0.36313077     0.79530
Cd19       Cd  0.24910010  0.01397642  0.43788352     1.37460
O20         O  0.32557968  0.95076012  0.37620149    -0.55460
O21         O  0.20996675  0.06666386  0.34653052    -0.54270
C22         C  0.21258123  0.91158012  0.00858678     0.79490
O23         O  0.14120628  0.05905233  0.41798340    -0.56640
O24         O  0.22295877  0.93364250  0.37302723    -0.55090
O25         O  0.28958279  0.06359765  0.52982231    -0.55080
O26         O  0.26740130  0.91792901  0.48578839    -0.54250
O27         O  0.41897113  0.24281736  0.39885136    -0.55460
C28         C  0.51715178  0.20136253  0.23723230     0.77170
O29         O  0.41703303  0.35585217  0.22611512    -0.56620
C30         C  0.36565186  0.23103999  0.37286396     0.77140
C31         C  0.51556912  0.39748050  0.38551729     0.79530
Cd32       Cd  0.46221130  0.29844189  0.31204293     1.37460
O33         O  0.50950789  0.19375248  0.29257170    -0.55460
O34         O  0.51269879  0.34261222  0.40518382    -0.54270
C35         C  0.36368960  0.36614406  0.25177383     0.79490
O36         O  0.50599601  0.40409326  0.33017190    -0.56640
O37         O  0.51126929  0.25632225  0.21830777    -0.55090
O38         O  0.36082721  0.24547779  0.31845278    -0.55080
O39         O  0.35936310  0.34925628  0.30542593    -0.54090
O40         O  0.98981993  0.19441597  0.07898035    -0.55460
C41         C  0.13599332  0.23104465  0.50052731     0.77170
O42         O  0.99353318  0.40467844  0.04001783    -0.56620
C43         C  0.98323134  0.20185206  0.13455344     0.77140
C44         C  0.13425838  0.36708479  0.12166058     0.79530
Cd45       Cd  0.03773610  0.29884156  0.05985455     1.37470
O46         O  0.08246807  0.24164456  0.47433861    -0.55460
O47         O  0.13984515  0.35044131  0.06791644    -0.54270
C48         C  0.98490066  0.39725414  0.98457461     0.79490
O49         O  0.08057694  0.35649822  0.14638007    -0.56640
O50         O  0.14044404  0.24675410  0.05470357    -0.55090
O51         O  0.98953222  0.25672731  0.15379713    -0.55080
O52         O  0.98865232  0.34205561  0.96549926    -0.54250
O53         O  0.64173483  0.03958408  0.45517351    -0.55460
C54         C  0.72507580  0.18248388  0.36597691     0.77170
O55         O  0.82987113  0.12962665  0.00817638    -0.56620
C56         C  0.65228452  0.02814755  0.50990339     0.77140
C57         C  0.84690640  0.02835179  0.36082460     0.79530
Cd58       Cd  0.75132265  0.07946974  0.43815260     1.37470
O59         O  0.67982755  0.14326670  0.37029952    -0.55460
O60         O  0.78847274  0.03233351  0.34383425    -0.54270
C61         C  0.78810333  0.17014990  0.02237661     0.79490
O62         O  0.85804134  0.03367585  0.41635559    -0.56640
O63         O  0.77765843  0.16997753  0.39192384    -0.55090
O64         O  0.71070171  0.02662891  0.52723755    -0.55080
O65         O  0.73212186  0.16491680  0.50036776    -0.54250
O66         O  0.82157846  0.45271356  0.11860524    -0.55460
C67         C  0.84862690  0.57156333  0.25684872     0.77170
O68         O  0.64340984  0.56462917  0.16327484    -0.56620
C69         C  0.77852953  0.41092475  0.11654323     0.77140
C70         C  0.72440277  0.42377543  0.26363067     0.79530
Cd71       Cd  0.75027030  0.51859658  0.18263993     1.37460
O72         O  0.85892533  0.56175772  0.20182789    -0.55460
O73         O  0.77927291  0.44063615  0.24661152    -0.54270
C74         C  0.65312770  0.57145960  0.10786113     0.79490
O75         O  0.67655396  0.45766625  0.24878244    -0.56640
O76         O  0.79023973  0.57135370  0.27342612    -0.55090
O77         O  0.72336793  0.42506917  0.13553271    -0.55080
O78         O  0.71095729  0.56719900  0.09014835    -0.54250
O79         O  0.49721375  0.90610447  0.29028077    -0.55460
C80         C  0.63521949  0.86589538  0.37111490     0.77170
O81         O  0.49022086  0.69531852  0.32700712    -0.56620
C82         C  0.48592332  0.89850145  0.23528045     0.77140
C83         C  0.63528605  0.73209865  0.24902245     0.79530
Cd84       Cd  0.53778081  0.79945790  0.30918340     1.37470
O85         O  0.58156744  0.85580424  0.39610213    -0.55460
O86         O  0.63926711  0.74591218  0.30369602    -0.54270
C87         C  0.48260180  0.70260675  0.38243841     0.79490
O88         O  0.58223469  0.74413002  0.22258419    -0.56640
O89         O  0.64026988  0.84957313  0.31724295    -0.55090
O90         O  0.48668214  0.84312488  0.21635848    -0.55080
O91         O  0.48817884  0.75740747  0.40209903    -0.54250
O92         O  0.91867550  0.85574791  0.47611292    -0.55460
C93         C  0.01460168  0.89710718  0.13714654     0.77170
O94         O  0.91920081  0.74161517  0.14775722    -0.56620
C95         C  0.86512972  0.86601303  0.50140733     0.77140
C96         C  0.01728311  0.70082664  0.98736752     0.79530
Cd97       Cd  0.96293757  0.79835772  0.06221136     1.37470
O98         O  0.00974894  0.90306580  0.08118518    -0.55460
O99         O  0.00998573  0.75545935  0.46800597    -0.54270
C100        C  0.86558142  0.73128678  0.12173200     0.79490
O101        O  0.01210364  0.69396917  0.04311972    -0.56640
O102        O  0.00792575  0.84278453  0.15722059    -0.55090
O103        O  0.86053345  0.84970898  0.05519130    -0.55080
O104        O  0.86087798  0.74654894  0.06753317    -0.54250
C105        C  0.99881138  0.05051369  0.24605134    -0.00130
C106        C  0.00033885  0.54952036  0.37519486    -0.00130
C107        C  0.50171800  0.05012731  0.12580626    -0.00130
C108        C  0.49911055  0.55163364  0.49327409    -0.00130
C109        C  0.02332378  0.64795728  0.44727993    -0.10920
C110        C  0.01649682  0.60336289  0.41427536    -0.12480
C111        C  0.01488119  0.99598348  0.20818132    -0.10920
C112        C  0.02105510  0.95054637  0.17632561    -0.12480
C113        C  0.69093487  0.89113053  0.46632961    -0.10990
C114        C  0.69198422  0.88828639  0.40400359     0.11160
C115        C  0.75120664  0.89286706  0.37432007    -0.10990
C116        C  0.80894154  0.89224273  0.40663339    -0.10990
C117        C  0.80796274  0.88834697  0.46889965     0.11160
C118        C  0.74864769  0.89170880  0.49864776    -0.10990
H119        H  0.64591151  0.88759456  0.49021001     0.15140
H120        H  0.75328704  0.89096853  0.32613411     0.15140
H121        H  0.85403442  0.88952899  0.38269723     0.15140
H122        H  0.74657883  0.88893690  0.04678008     0.15140
C123        C  0.69144099  0.70705180  0.15473746    -0.10990
C124        C  0.69263982  0.71068251  0.21707748     0.11160
C125        C  0.75212775  0.70755952  0.24768115    -0.10990
C126        C  0.80970894  0.70797185  0.21621576    -0.10990
C127        C  0.80848498  0.71016762  0.15383401     0.11160
C128        C  0.74904391  0.70610067  0.12327449    -0.10990
H129        H  0.64624250  0.70979907  0.13012472     0.15140
H130        H  0.75444024  0.71040851  0.29585999     0.15140
H131        H  0.85484749  0.71144545  0.24080545     0.15140
H132        H  0.74674094  0.70785087  0.07506446     0.15140
C133        C  0.48260264  0.60512796  0.45434441    -0.10920
C134        C  0.47585045  0.64991422  0.42194886    -0.12480
C135        C  0.47943727  0.95108682  0.19554069    -0.10920
C136        C  0.48589885  0.99604962  0.16360438    -0.12480
C137        C  0.59993059  0.57640230  0.06594477    -0.10920
C138        C  0.55494524  0.56811456  0.03177647    -0.12480
C139        C  0.94517919  0.56617348  0.33538591    -0.10920
C140        C  0.90128293  0.57511437  0.29988690    -0.12480
C141        C  0.84684576  0.26811009  0.04113768    -0.10990
C142        C  0.80162841  0.22394191  0.05952110     0.11160
C143        C  0.75481787  0.24019027  0.10117092    -0.10990
C144        C  0.74930723  0.30093504  0.12037449    -0.10990
C145        C  0.79066856  0.34670523  0.09835379     0.11160
C146        C  0.84145009  0.32962499  0.06087940    -0.10990
H147        H  0.88218468  0.25646029  0.50763547     0.15140
H148        H  0.71902518  0.20681553  0.11507628     0.15140
H149        H  0.71088107  0.31243895  0.15096037     0.15140
H150        H  0.87386200  0.36435879  0.04412528     0.15140
C151        C  0.66073107  0.33326191  0.30240809    -0.10990
C152        C  0.71957452  0.36399599  0.29375683     0.11160
C153        C  0.77777426  0.33281636  0.30541453    -0.10990
C154        C  0.77788921  0.27244252  0.32429678    -0.10990
C155        C  0.71986277  0.24181420  0.33516710     0.11160
C156        C  0.66085102  0.27222667  0.32409865    -0.10990
H157        H  0.61541182  0.35590262  0.29177233     0.15140
H158        H  0.82419236  0.35444335  0.29847756     0.15140
H159        H  0.82426914  0.25026003  0.33201144     0.15140
H160        H  0.61559269  0.24954457  0.33330540     0.15140
C161        C  0.55644423  0.03366323  0.08676539    -0.10920
C162        C  0.60001635  0.02459405  0.05195004    -0.12480
C163        C  0.94320738  0.03465244  0.28420822    -0.10920
C164        C  0.89903336  0.02545929  0.31831508    -0.12480
C165        C  0.97655702  0.14931890  0.17461087    -0.10920
C166        C  0.98280595  0.10464124  0.20741747    -0.12480
C167        C  0.98395477  0.49508913  0.41267614    -0.10920
C168        C  0.97795685  0.44996483  0.44469316    -0.12480
C169        C  0.24713951  0.39163947  0.24962648    -0.10990
C170        C  0.30648739  0.38949125  0.21984113     0.11160
C171        C  0.30746433  0.39586939  0.15773958    -0.10990
C172        C  0.24968482  0.39671675  0.12538633    -0.10990
C173        C  0.19053978  0.39021784  0.15488597     0.11160
C174        C  0.18945591  0.39145595  0.21726605    -0.10990
H175        H  0.24505168  0.38733830  0.29764619     0.15140
H176        H  0.35260944  0.39451846  0.13379742     0.15140
H177        H  0.25174311  0.39626183  0.07717092     0.15140
H178        H  0.14449546  0.38667254  0.24103578     0.15140
C179        C  0.31031146  0.20590199  0.46743624    -0.10990
C180        C  0.30888431  0.20905374  0.40506761     0.11160
C181        C  0.24936152  0.20490873  0.37464884    -0.10990
C182        C  0.19184580  0.20549641  0.40624907    -0.10990
C183        C  0.19319109  0.20899563  0.46859618     0.11160
C184        C  0.25275997  0.20527778  0.49905606    -0.10990
H185        H  0.35553991  0.20908272  0.49192078     0.15140
H186        H  0.24687355  0.20706353  0.32646159     0.15140
H187        H  0.14660300  0.20841254  0.38172637     0.15140
H188        H  0.25514259  0.20774153  0.04724917     0.15140
C189        C  0.52451175  0.14891514  0.19702763    -0.10920
C190        C  0.51833940  0.10414186  0.16426501    -0.12480
C191        C  0.52180472  0.45083972  0.42477674    -0.10920
C192        C  0.51506373  0.49654265  0.45615696    -0.12480
C193        C  0.40052709  0.07367242  0.05325567    -0.10920
C194        C  0.44568385  0.06625746  0.08741320    -0.12480
C195        C  0.09897683  0.07396420  0.32040045    -0.10920
C196        C  0.05442767  0.06624735  0.28544389    -0.12480
C197        C  0.15775841  0.84267627  0.08215745    -0.10990
C198        C  0.19436238  0.85049683  0.03077951     0.11160
C199        C  0.21890069  0.79829969  0.00099429    -0.10990
C200        C  0.20862476  0.73913834  0.02260065    -0.10990
C201        C  0.17690150  0.73142262  0.07648370     0.11160
C202        C  0.14990811  0.78311543  0.10561392    -0.10990
H203        H  0.14075525  0.88265909  0.10670110     0.15140
H204        H  0.24996700  0.80343822  0.46314403     0.15140
H205        H  0.23250274  0.70025319  0.00124241     0.15140
H206        H  0.12812009  0.77792313  0.14897222     0.15140
C207        C  0.24280285  0.74952508  0.33388661    -0.10990
C208        C  0.29668313  0.72858687  0.30272812     0.11160
C209        C  0.34908877  0.76851387  0.29381294    -0.10990
C210        C  0.34517020  0.83026892  0.31350729    -0.10990
C211        C  0.28777688  0.85230027  0.33872564     0.11160
C212        C  0.23704714  0.81106697  0.34886602    -0.10990
H213        H  0.20192712  0.71940203  0.34148099     0.15140
H214        H  0.39046735  0.75338824  0.26844190     0.15140
H215        H  0.38505955  0.86130880  0.30677120     0.15140
H216        H  0.19259236  0.82597551  0.36964413     0.15140
C217        C  0.10040185  0.52450501  0.30305625    -0.10920
C218        C  0.05615822  0.53323924  0.33728685    -0.12480
C219        C  0.44392978  0.53690240  0.03207497    -0.10920
C220        C  0.39957827  0.52989095  0.06632386    -0.12480
O221        O  0.35715836  0.54244255  0.66328044    -0.55460
C222        C  0.28596085  0.67424490  0.76553915     0.77170
O223        O  0.17106223  0.62516051  0.60754484    -0.56620
C224        C  0.34698074  0.53486936  0.60795402     0.77140
C225        C  0.15198027  0.52862086  0.76023233     0.79530
Cd226      Cd  0.24721341  0.58225270  0.68429765     1.37460
O227        O  0.32929740  0.63584106  0.75007481    -0.55460
O228        O  0.21068622  0.52998431  0.77641009    -0.54270
C229        C  0.19666872  0.67830911  0.61166197     0.79490
O230        O  0.14016084  0.53779420  0.70547173    -0.56640
O231        O  0.22990417  0.66659934  0.74447601    -0.55090
O232        O  0.28888620  0.53778201  0.59019791    -0.55080
O233        O  0.24442652  0.68436075  0.64624758    -0.54250
O234        O  0.35647277  0.05935127  0.95643671    -0.55460
C235        C  0.27925994  0.91552357  0.86100183     0.77170
O236        O  0.17470032  0.95803262  0.00687590    -0.56620
C237        C  0.34716558  0.06754200  0.01174342     0.77140
C238        C  0.15166006  0.06865239  0.86312968     0.79530
Cd239      Cd  0.24910400  0.01397609  0.93788366     1.37460
O240        O  0.32558278  0.95075763  0.87620272    -0.55460
O241        O  0.20997205  0.06666303  0.84652985    -0.54270
C242        C  0.21257917  0.91157968  0.50858634     0.79490
O243        O  0.14121091  0.05905311  0.91798236    -0.56640
O244        O  0.22296145  0.93364249  0.87302751    -0.55090
O245        O  0.28958763  0.06359801  0.02982184    -0.55080
O246        O  0.26740376  0.91792901  0.98578950    -0.54250
O247        O  0.41896969  0.24281652  0.89885136    -0.55460
C248        C  0.51714995  0.20136099  0.73723236     0.77170
O249        O  0.41703301  0.35585128  0.72611512    -0.56620
C250        C  0.36565042  0.23103958  0.87286379     0.77140
C251        C  0.51557024  0.39747868  0.88551710     0.79530
Cd252      Cd  0.46221063  0.29844076  0.81204298     1.37460
O253        O  0.50950707  0.19375125  0.79257194    -0.55460
O254        O  0.51269847  0.34261058  0.90518385    -0.54270
C255        C  0.36368957  0.36614364  0.75177364     0.79490
O256        O  0.50599762  0.40409137  0.83017162    -0.56640
O257        O  0.51126718  0.25632058  0.71830760    -0.55090
O258        O  0.36082607  0.24547752  0.81845264    -0.55080
O259        O  0.35936280  0.34925619  0.80542583    -0.54090
O260        O  0.98981879  0.19441624  0.57897933    -0.55460
C261        C  0.13599181  0.23104467  0.00052704     0.77170
O262        O  0.99352694  0.40467624  0.54001769    -0.56620
C263        C  0.98323306  0.20185156  0.63455287     0.77140
C264        C  0.13425861  0.36708577  0.62165952     0.79530
Cd265      Cd  0.03773667  0.29884142  0.55985388     1.37470
O266        O  0.08246688  0.24164605  0.97433832    -0.55460
O267        O  0.13984507  0.35044291  0.56791517    -0.54270
C268        C  0.98490037  0.39725308  0.48457354     0.79490
O269        O  0.08057740  0.35649865  0.64637918    -0.56640
O270        O  0.14044553  0.24675540  0.55470348    -0.55090
O271        O  0.98953588  0.25672636  0.65379711    -0.55080
O272        O  0.98865751  0.34205537  0.46549704    -0.54250
O273        O  0.64174322  0.03958405  0.95517621    -0.55460
C274        C  0.72508537  0.18248552  0.86598605     0.77170
O275        O  0.82986081  0.12963244  0.50816896    -0.56620
C276        C  0.65229154  0.02814696  0.00990617     0.77140
C277        C  0.84691387  0.02835068  0.86082670     0.79530
Cd278      Cd  0.75133213  0.07946783  0.93815734     1.37470
O279        O  0.67983738  0.14326787  0.87030703    -0.55460
O280        O  0.78847997  0.03233367  0.84383739    -0.54270
C281        C  0.78809233  0.17015510  0.52236887     0.79490
O282        O  0.85804996  0.03367314  0.91635765    -0.56640
O283        O  0.77766865  0.16997719  0.89193098    -0.55090
O284        O  0.71070840  0.02662678  0.02724123    -0.55080
O285        O  0.73213327  0.16491344  0.00037423    -0.54250
O286        O  0.82156534  0.45271784  0.61860192    -0.55460
C287        C  0.84862025  0.57156270  0.75685145     0.77170
O288        O  0.64340022  0.56462833  0.66327881    -0.56620
C289        C  0.77851732  0.41092804  0.61654204     0.77140
C290        C  0.72439950  0.42377576  0.76363601     0.79530
Cd291      Cd  0.75026165  0.51859717  0.68264363     1.37460
O292        O  0.85891775  0.56175625  0.70183063    -0.55460
O293        O  0.77926780  0.44063203  0.74660786    -0.54270
C294        C  0.65311894  0.57146069  0.60786544     0.79490
O295        O  0.67655028  0.45766847  0.74879277    -0.56640
O296        O  0.79023330  0.57135417  0.77342947    -0.55090
O297        O  0.72335737  0.42507004  0.63553730    -0.55080
O298        O  0.71094885  0.56720161  0.59015339    -0.54250
O299        O  0.49721315  0.90610329  0.79028028    -0.55460
C300        C  0.63521842  0.86589537  0.87111496     0.77170
O301        O  0.49022315  0.69531690  0.82700673    -0.56620
C302        C  0.48592163  0.89849998  0.73528020     0.77140
C303        C  0.63528727  0.73209918  0.74902176     0.79530
Cd304      Cd  0.53778101  0.79945707  0.80918285     1.37470
O305        O  0.58156639  0.85580341  0.89610192    -0.55460
O306        O  0.63926833  0.74591312  0.80369523    -0.54270
C307        C  0.48260394  0.70260512  0.88243800     0.79490
O308        O  0.58223567  0.74412973  0.72258358    -0.56640
O309        O  0.64026924  0.84957374  0.81724286    -0.55090
O310        O  0.48668049  0.84312334  0.71635841    -0.55080
O311        O  0.48817977  0.75740600  0.90209849    -0.54250
O312        O  0.91867385  0.85574792  0.97611373    -0.55460
C313        C  0.01460346  0.89710672  0.63714579     0.77170
O314        O  0.91920220  0.74161503  0.64775644    -0.56620
C315        C  0.86512813  0.86601302  0.00140826     0.77140
C316        C  0.01728525  0.70082624  0.48736719     0.79530
Cd317      Cd  0.96293897  0.79835745  0.56221057     1.37470
O318        O  0.00975079  0.90306533  0.58118443    -0.55460
O319        O  0.00998400  0.75545989  0.96800655    -0.54270
C320        C  0.86558279  0.73128666  0.62173126     0.79490
O321        O  0.01210554  0.69396899  0.54311939    -0.56640
O322        O  0.00792685  0.84278418  0.65721990    -0.55090
O323        O  0.86053483  0.84970875  0.55519029    -0.55080
O324        O  0.86087935  0.74654870  0.56753238    -0.54250
C325        C  0.99881624  0.05051327  0.74605067    -0.00130
C326        C  0.00033483  0.54952092  0.87519511    -0.00130
C327        C  0.50171355  0.05012614  0.62580625    -0.00130
C328        C  0.49911554  0.55163236  0.99327383    -0.00130
C329        C  0.02332084  0.64795779  0.94728000    -0.10920
C330        C  0.01649322  0.60336352  0.91427538    -0.12480
C331        C  0.01488529  0.99598295  0.70818058    -0.10920
C332        C  0.02105809  0.95054578  0.67632480    -0.12480
C333        C  0.69093314  0.89112933  0.96633020    -0.10990
C334        C  0.69198277  0.88828643  0.90400414     0.11160
C335        C  0.75120528  0.89286806  0.87432092    -0.10990
C336        C  0.80894004  0.89224346  0.90663444    -0.10990
C337        C  0.80796101  0.88834665  0.96890063     0.11160
C338        C  0.74864580  0.89170734  0.99864856    -0.10990
H339        H  0.64590970  0.88759261  0.99021038     0.15140
H340        H  0.75328589  0.89097039  0.82613494     0.15140
H341        H  0.85403304  0.88953041  0.88269841     0.15140
H342        H  0.74658092  0.88893927  0.54677933     0.15140
C343        C  0.69144233  0.70705215  0.65473685    -0.10990
C344        C  0.69264117  0.71068325  0.71707684     0.11160
C345        C  0.75212910  0.70756044  0.74768053    -0.10990
C346        C  0.80971029  0.70797233  0.71621513    -0.10990
C347        C  0.80848633  0.71016772  0.65383336     0.11160
C348        C  0.74904524  0.70610074  0.62327387    -0.10990
H349        H  0.64624384  0.70979936  0.63012410     0.15140
H350        H  0.75444159  0.71040970  0.79585935     0.15140
H351        H  0.85484886  0.71144589  0.74080480     0.15140
H352        H  0.74674228  0.70785067  0.57506384     0.15140
C353        C  0.48260690  0.60512645  0.95434413    -0.10920
C354        C  0.47585378  0.64991255  0.92194855    -0.12480
C355        C  0.47943432  0.95108520  0.69554044    -0.10920
C356        C  0.48589503  0.99604816  0.66360419    -0.12480
C357        C  0.59992268  0.57640371  0.56594829    -0.10920
C358        C  0.55493872  0.56811601  0.53177845    -0.12480
C359        C  0.94517420  0.56617349  0.83538708    -0.10920
C360        C  0.90127705  0.57511390  0.79988886    -0.12480
C361        C  0.84683071  0.26811837  0.54112569    -0.10990
C362        C  0.80161712  0.22394797  0.55951212     0.11160
C363        C  0.75480962  0.24019352  0.60116572    -0.10990
C364        C  0.74929869  0.30093748  0.62037150    -0.10990
C365        C  0.79065629  0.34670976  0.59834876     0.11160
C366        C  0.84143448  0.32963262  0.56086916    -0.10990
H367        H  0.88220228  0.25645004  0.00765038     0.15140
H368        H  0.71901973  0.20681701  0.61507324     0.15140
H369        H  0.71087527  0.31243906  0.65096110     0.15140
H370        H  0.87384352  0.36436807  0.54411300     0.15140
C371        C  0.66073250  0.33325872  0.80241160    -0.10990
C372        C  0.71957352  0.36399975  0.79376856     0.11160
C373        C  0.77777530  0.33282884  0.80543893    -0.10990
C374        C  0.77789505  0.27245532  0.82432228    -0.10990
C375        C  0.71987059  0.24181866  0.83518108     0.11160
C376        C  0.66085673  0.27222374  0.82410294    -0.10990
H377        H  0.61541211  0.35589287  0.79176662     0.15140
H378        H  0.82419163  0.35446236  0.79851003     0.15140
H379        H  0.82427679  0.25027942  0.83204524     0.15140
H380        H  0.61559963  0.24953530  0.83330077     0.15140
C381        C  0.55643899  0.03366233  0.58676442    -0.10920
C382        C  0.60001034  0.02459369  0.55194817    -0.12480
C383        C  0.94321305  0.03465196  0.78420849    -0.10920
C384        C  0.89903987  0.02545855  0.81831618    -0.12480
C385        C  0.97655995  0.14931806  0.67461009    -0.10920
C386        C  0.98280988  0.10464058  0.70741679    -0.12480
C387        C  0.98395212  0.49508960  0.91267664    -0.10920
C388        C  0.97795567  0.44996528  0.94469382    -0.12480
C389        C  0.24713963  0.39163999  0.74962571    -0.10990
C390        C  0.30648761  0.38949096  0.71984058     0.11160
C391        C  0.30746483  0.39586850  0.65773898    -0.10990
C392        C  0.24968546  0.39671631  0.62538552    -0.10990
C393        C  0.19054019  0.39021843  0.65488498     0.11160
C394        C  0.18945613  0.39145690  0.71726507    -0.10990
H395        H  0.24505157  0.38733917  0.79764544     0.15140
H396        H  0.35261002  0.39451689  0.63379696     0.15140
H397        H  0.25174395  0.39626098  0.57717013     0.15140
H398        H  0.14449553  0.38667413  0.74103468     0.15140
C399        C  0.31030968  0.20590083  0.96743575    -0.10990
C400        C  0.30888258  0.20905357  0.90506718     0.11160
C401        C  0.24935977  0.20490962  0.87464831    -0.10990
C402        C  0.19184404  0.20549734  0.90624851    -0.10990
C403        C  0.19318934  0.20899554  0.96859566     0.11160
C404        C  0.25275816  0.20527662  0.99905553    -0.10990
H405        H  0.35553815  0.20908079  0.99192036     0.15140
H406        H  0.24687184  0.20706515  0.82646110     0.15140
H407        H  0.14660128  0.20841420  0.88172583     0.15140
H408        H  0.25514440  0.20774347  0.54724966     0.15140
C409        C  0.52450903  0.14891344  0.69702779    -0.10920
C410        C  0.51833584  0.10414031  0.66426513    -0.12480
C411        C  0.52180690  0.45083789  0.92477640    -0.10920
C412        C  0.51506704  0.49654097  0.95615665    -0.12480
C413        C  0.40052207  0.07367223  0.55325670    -0.10920
C414        C  0.44567888  0.06625679  0.58741407    -0.12480
C415        C  0.09898237  0.07396410  0.82039892    -0.10920
C416        C  0.05443315  0.06624716  0.78544243    -0.12480
C417        C  0.15775763  0.84267602  0.58215771    -0.10990
C418        C  0.19436120  0.85049640  0.53077955     0.11160
C419        C  0.21889967  0.79829921  0.50099455    -0.10990
C420        C  0.20862370  0.73913793  0.52260107    -0.10990
C421        C  0.17690014  0.73142238  0.57648401     0.11160
C422        C  0.14990707  0.78311528  0.60561424    -0.10990
H423        H  0.14075496  0.88265896  0.60670144     0.15140
H424        H  0.24996803  0.80343880  0.96314378     0.15140
H425        H  0.23250163  0.70025268  0.50124295     0.15140
H426        H  0.12811913  0.77792311  0.64897259     0.15140
C427        C  0.24280061  0.74952484  0.83388616    -0.10990
C428        C  0.29668093  0.72858522  0.80272855     0.11160
C429        C  0.34908801  0.76851075  0.79381450    -0.10990
C430        C  0.34517095  0.83026580  0.81350908    -0.10990
C431        C  0.28777775  0.85229869  0.83872647     0.11160
C432        C  0.23704651  0.81106679  0.84886580    -0.10990
H433        H  0.20192381  0.71940291  0.84147976     0.15140
H434        H  0.39046670  0.75338402  0.76844421     0.15140
H435        H  0.38506152  0.86130449  0.80677402     0.15140
H436        H  0.19259182  0.82597646  0.86964334     0.15140
C437        C  0.10039708  0.52450550  0.80305570    -0.10920
C438        C  0.05615362  0.53324005  0.83728636    -0.12480
C439        C  0.44392396  0.53690274  0.53207380    -0.10920
C440        C  0.39957249  0.52989050  0.56632252    -0.12480
loop_ 
_geom_bond_atom_site_label_1 
_geom_bond_atom_site_label_2 
_geom_bond_distance 
_geom_bond_site_symmetry_2 
_ccdc_geom_bond_type 
O1            C4   1.266       .  A
O1           Cd6   2.480       .  S
C2           O11   1.260       .  A
C2            O7   1.269       .  A
C2          C208   1.453       .  S
O3            C9   1.268       .  A
O3           Cd6   2.499       .  S
C4           O12   1.265       .  A
C4          C220   1.445       .  S
C5           O10   1.265       .  A
C5            O8   1.266       .  A
C5          C217   1.447       .  S
Cd6          O13   2.365       .  S
Cd6          O12   2.477       .  S
Cd6          O11   2.291       .  S
Cd6           O7   2.521       .  S
Cd6          O10   2.472       .  S
Cd6           O8   2.483       .  S
C9           O13   1.258       .  A
C9          C201   1.448       .  S
O14          C17   1.268       .  A
O14         Cd19   2.465       .  S
C15          O24   1.260       .  A
C15          O20   1.270       .  A
C15         C211   1.461       .  S
O16         C242   1.270       .  A
O16         Cd19   2.511   1_565  S
C17          O25   1.267       .  A
C17         C413   1.444       .  S
C18          O23   1.269       .  A
C18          O21   1.268       .  A
C18         C195   1.449       .  S
Cd19         O26   2.364   1_545  S
Cd19         O25   2.461       .  S
Cd19         O24   2.321   1_545  S
Cd19         O20   2.509   1_545  S
Cd19         O23   2.470       .  S
Cd19         O21   2.473       .  S
C22         O236   1.270       .  A
C22         O246   1.259   1_554  A
C22         C198   1.463       .  S
O26         C242   1.259       .  A
O27          C30   1.270       .  A
O27         Cd32   2.468       .  S
C28          O37   1.265       .  A
C28          O33   1.264       .  A
C28         C189   1.453       .  S
O29          C35   1.270       .  A
O29         Cd32   2.467       .  S
C30          O38   1.263       .  A
C30         C180   1.468       .  S
C31          O36   1.263       .  A
C31          O34   1.266       .  A
C31         C191   1.452       .  S
Cd32         O39   2.395       .  S
Cd32         O38   2.402       .  S
Cd32         O37   2.510       .  S
Cd32         O33   2.497       .  S
Cd32         O36   2.487       .  S
Cd32         O34   2.512       .  S
C35          O39   1.262       .  A
C35         C170   1.466       .  S
O40          C43   1.264       .  A
O40         Cd45   2.506   1_655  S
C41          O46   1.269       .  A
C41         O270   1.262       .  A
C41         C183   1.467       .  S
O42          C48   1.264   1_554  A
O42         Cd45   2.496   1_655  S
C43          O51   1.265       .  A
C43         C165   1.456       .  S
C44          O49   1.270       .  A
C44          O47   1.262       .  A
C44         C173   1.466       .  S
Cd45         O52   2.517   1_454  S
Cd45         O51   2.515   1_455  S
Cd45         O50   2.405       .  S
Cd45         O49   2.461       .  S
Cd45         O47   2.400       .  S
Cd45        O266   2.463   1_554  S
O46        Cd265   2.463       .  S
C48          O52   1.266       .  A
C48         C388   1.454       .  S
O50         C261   1.262       .  A
O53          C56   1.269       .  A
O53         Cd58   2.466       .  S
C54          O63   1.258       .  A
C54          O59   1.270       .  A
C54         C155   1.459       .  S
O55          C61   1.269       .  A
O55        Cd278   2.497   1_554  S
C56          O64   1.268       .  A
C56         C382   1.446       .  S
C57          O62   1.269       .  A
C57          O60   1.268       .  A
C57         C164   1.449       .  S
Cd58         O65   2.343       .  S
Cd58         O64   2.461       .  S
Cd58         O63   2.284       .  S
Cd58         O59   2.520       .  S
Cd58         O62   2.470       .  S
Cd58         O60   2.472       .  S
Cd58        O275   2.497       .  S
C61         O285   1.261       .  A
C61         C142   1.453       .  S
O65         C281   1.261       .  A
O66          C69   1.271       .  A
O66         Cd71   2.505       .  S
C67          O76   1.269       .  A
C67          O72   1.271       .  A
C67         C140   1.451       .  S
O68          C74   1.270       .  A
O68         Cd71   2.457       .  S
C69          O77   1.260       .  A
C69         C145   1.464       .  S
C70          O75   1.271       .  A
C70          O73   1.259       .  A
C70         C152   1.462       .  S
Cd71         O78   2.456       .  S
Cd71         O77   2.341       .  S
Cd71         O76   2.466       .  S
Cd71         O72   2.473       .  S
Cd71         O75   2.517       .  S
Cd71         O73   2.288       .  S
C74          O78   1.269       .  A
C74         C137   1.445       .  S
O79          C82   1.263       .  A
O79         Cd84   2.482       .  S
C80          O89   1.262       .  A
C80          O85   1.270       .  A
C80         C114   1.465       .  S
O81          C87   1.264       .  A
O81         Cd84   2.492       .  S
C82          O90   1.266       .  A
C82         C135   1.450       .  S
C83          O88   1.269       .  A
C83          O86   1.262       .  A
C83         C124   1.466       .  S
Cd84         O91   2.507       .  S
Cd84         O90   2.509       .  S
Cd84         O89   2.392       .  S
Cd84         O85   2.461       .  S
Cd84         O88   2.460       .  S
Cd84         O86   2.398       .  S
C87          O91   1.266       .  A
C87         C134   1.451       .  S
O92          C95   1.269       .  A
O92        Cd317   2.463       .  S
C93         O102   1.265       .  A
C93          O98   1.264       .  A
C93         C112   1.453       .  S
O94         C100   1.270       .  A
O94         Cd97   2.462       .  S
C95         O323   1.262       .  A
C95         C117   1.465       .  S
C96         O101   1.265   1_556  A
C96         O319   1.265       .  A
C96         C329   1.455       .  S
Cd97        O104   2.400       .  S
Cd97        O103   2.393       .  S
Cd97        O102   2.505   1_655  S
Cd97         O98   2.496   1_655  S
Cd97        O101   2.505   1_655  S
Cd97        O312   2.463   1_554  S
Cd97        O319   2.508   1_654  S
O99         C316   1.265       .  A
O99        Cd317   2.508   1_455  S
C100        O104   1.263       .  A
C100        C127   1.466       .  S
O103        C315   1.262       .  A
C105        C111   1.487   1_645  S
C105        C163   1.484       .  S
C105        C166   1.490       .  S
C105        C196   1.484   1_655  S
C106        C110   1.490       .  S
C106        C139   1.486   1_455  S
C106        C167   1.489   1_455  S
C106        C218   1.482       .  S
C107        C136   1.484   1_545  S
C107        C161   1.481       .  S
C107        C190   1.487       .  S
C107        C194   1.479       .  S
C108        C133   1.486       .  S
C108        C192   1.486       .  S
C108        C358   1.480       .  S
C108        C439   1.480       .  S
C109        C316   1.455       .  S
C109        C110   1.220       .  T
C111        C112   1.218       .  T
C113        C114   1.399       .  A
C113        C118   1.392       .  A
C113        H119   1.083       .  S
C114        C115   1.406       .  A
C115        C116   1.392       .  A
C115        H120   1.082       .  S
C116        C117   1.399       .  A
C116        H121   1.083       .  S
C117        C118   1.406       .  A
C118        H342   1.082       .  S
H122        C338   1.082   1_554  S
C123        C124   1.399       .  A
C123        C128   1.393       .  A
C123        H129   1.083       .  S
C124        C125   1.406       .  A
C125        C126   1.392       .  A
C125        H130   1.082       .  S
C126        C127   1.399       .  A
C126        H131   1.083       .  S
C127        C128   1.406       .  A
C128        H132   1.082       .  S
C133        C134   1.217       .  T
C135        C136   1.216       .  T
C137        C138   1.214       .  T
C138        C328   1.480   1_554  S
C139        C140   1.217       .  T
C141        C142   1.405       .  A
C141        C146   1.402       .  A
C141        H367   1.083       .  S
C142        C143   1.396       .  A
C143        C144   1.383       .  A
C143        H148   1.085       .  S
C144        C145   1.405       .  A
C144        H149   1.084       .  S
C145        C146   1.400       .  A
C146        H150   1.079       .  S
H147        C361   1.083       .  S
C151        C152   1.406       .  A
C151        C156   1.405       .  A
C151        H157   1.081       .  S
C152        C153   1.401       .  A
C153        C154   1.371       .  A
C153        H158   1.084       .  S
C154        C155   1.398       .  A
C154        H159   1.084       .  S
C155        C156   1.405       .  A
C156        H160   1.082       .  S
C161        C162   1.214       .  T
C162        C276   1.446       .  S
C163        C164   1.216       .  T
C165        C166   1.220       .  T
C167        C168   1.219       .  T
C168        C268   1.454       .  S
C169        C170   1.406       .  A
C169        C174   1.392       .  A
C169        H175   1.082       .  S
C170        C171   1.400       .  A
C171        C172   1.393       .  A
C171        H176   1.083       .  S
C172        C173   1.406       .  A
C172        H177   1.082       .  S
C173        C174   1.399       .  A
C174        H178   1.083       .  S
C179        C180   1.400       .  A
C179        C184   1.394       .  A
C179        H185   1.083       .  S
C180        C181   1.406       .  A
C181        C182   1.393       .  A
C181        H186   1.082       .  S
C182        C183   1.399       .  A
C182        H187   1.083       .  S
C183        C184   1.406       .  A
C184        H408   1.082       .  S
H188        C404   1.082   1_554  S
C189        C190   1.218       .  T
C191        C192   1.218       .  T
C193        C237   1.444       .  S
C193        C194   1.213       .  T
C195        C196   1.216       .  T
C197        C198   1.397       .  A
C197        C202   1.401       .  A
C197        H203   1.081       .  S
C198        C199   1.403       .  A
C199        C200   1.385       .  A
C199        H424   1.077   1_554  S
C200        C201   1.392       .  A
C200        H205   1.084       .  S
C201        C202   1.407       .  A
C202        H206   1.082       .  S
H204        C419   1.077       .  S
C207        C208   1.396       .  A
C207        C212   1.373       .  A
C207        H213   1.085       .  S
C208        C209   1.405       .  A
C209        C210   1.404       .  A
C209        H214   1.082       .  S
C210        C211   1.402       .  A
C210        H215   1.078       .  S
C211        C212   1.401       .  A
C212        H216   1.083       .  S
C217        C218   1.215       .  T
C219        C328   1.480   1_554  S
C219        C220   1.214       .  T
O221        C224   1.266       .  A
O221       Cd226   2.480       .  S
C222        O231   1.260       .  A
C222        O227   1.269       .  A
C222        C428   1.453       .  S
O223        C229   1.268       .  A
O223       Cd226   2.499       .  S
C224        O232   1.265       .  A
C224        C440   1.445       .  S
C225        O230   1.265       .  A
C225        O228   1.266       .  A
C225        C437   1.447       .  S
Cd226       O233   2.365       .  S
Cd226       O232   2.477       .  S
Cd226       O231   2.291       .  S
Cd226       O227   2.521       .  S
Cd226       O230   2.472       .  S
Cd226       O228   2.483       .  S
C229        O233   1.258       .  A
C229        C421   1.448       .  S
O234        C237   1.268   1_556  A
O234       Cd239   2.465       .  S
C235        O244   1.260       .  A
C235        O240   1.270       .  A
C235        C431   1.461       .  S
O236       Cd239   2.511   1_564  S
C237        O245   1.267       .  A
C238        O243   1.269       .  A
C238        O241   1.268       .  A
C238        C415   1.449       .  S
Cd239       O246   2.364   1_545  S
Cd239       O245   2.461   1_556  S
Cd239       O244   2.321   1_545  S
Cd239       O240   2.509   1_545  S
Cd239       O243   2.470       .  S
Cd239       O241   2.473       .  S
C242        C418   1.463       .  S
O247        C250   1.270       .  A
O247       Cd252   2.468       .  S
C248        O257   1.265       .  A
C248        O253   1.264       .  A
C248        C409   1.453       .  S
O249        C255   1.270       .  A
O249       Cd252   2.467       .  S
C250        O258   1.263       .  A
C250        C400   1.468       .  S
C251        O256   1.263       .  A
C251        O254   1.266       .  A
C251        C411   1.452       .  S
Cd252       O259   2.395       .  S
Cd252       O258   2.402       .  S
Cd252       O257   2.510       .  S
Cd252       O253   2.497       .  S
Cd252       O256   2.487       .  S
Cd252       O254   2.512       .  S
C255        O259   1.262       .  A
C255        C390   1.466       .  S
O260        C263   1.264       .  A
O260       Cd265   2.506   1_655  S
C261        O266   1.269   1_554  A
C261        C403   1.467   1_554  S
O262        C268   1.264       .  A
O262       Cd265   2.496   1_655  S
C263        O271   1.265       .  A
C263        C385   1.456       .  S
C264        O269   1.270       .  A
C264        O267   1.262       .  A
C264        C393   1.466       .  S
Cd265       O272   2.517   1_455  S
Cd265       O271   2.515   1_455  S
Cd265       O270   2.405       .  S
Cd265       O269   2.461       .  S
Cd265       O267   2.400       .  S
C268        O272   1.266       .  A
O273        C276   1.269   1_556  A
O273       Cd278   2.466       .  S
C274        O283   1.258       .  A
C274        O279   1.270       .  A
C274        C375   1.459       .  S
O275        C281   1.269       .  A
C276        O284   1.268       .  A
C277        O282   1.269       .  A
C277        O280   1.268       .  A
C277        C384   1.449       .  S
Cd278       O285   2.343   1_556  S
Cd278       O284   2.461   1_556  S
Cd278       O283   2.284       .  S
Cd278       O279   2.520       .  S
Cd278       O282   2.470       .  S
Cd278       O280   2.472       .  S
C281        C362   1.453       .  S
O286        C289   1.271       .  A
O286       Cd291   2.505       .  S
C287        O296   1.269       .  A
C287        O292   1.271       .  A
C287        C360   1.451       .  S
O288        C294   1.270       .  A
O288       Cd291   2.457       .  S
C289        O297   1.260       .  A
C289        C365   1.464       .  S
C290        O295   1.271       .  A
C290        O293   1.259       .  A
C290        C372   1.462       .  S
Cd291       O298   2.456       .  S
Cd291       O297   2.341       .  S
Cd291       O296   2.466       .  S
Cd291       O292   2.473       .  S
Cd291       O295   2.517       .  S
Cd291       O293   2.288       .  S
C294        O298   1.269       .  A
C294        C357   1.445       .  S
O299        C302   1.263       .  A
O299       Cd304   2.482       .  S
C300        O309   1.262       .  A
C300        O305   1.270       .  A
C300        C334   1.465       .  S
O301        C307   1.264       .  A
O301       Cd304   2.492       .  S
C302        O310   1.266       .  A
C302        C355   1.450       .  S
C303        O308   1.269       .  A
C303        O306   1.262       .  A
C303        C344   1.466       .  S
Cd304       O311   2.507       .  S
Cd304       O310   2.509       .  S
Cd304       O309   2.392       .  S
Cd304       O305   2.461       .  S
Cd304       O308   2.460       .  S
Cd304       O306   2.398       .  S
C307        O311   1.266       .  A
C307        C354   1.451       .  S
O312        C315   1.269   1_556  A
C313        O322   1.265       .  A
C313        O318   1.264       .  A
C313        C332   1.453       .  S
O314        C320   1.270       .  A
O314       Cd317   2.462       .  S
C315        C337   1.465   1_554  S
C316        O321   1.265       .  A
Cd317       O324   2.400       .  S
Cd317       O323   2.393       .  S
Cd317       O322   2.505   1_655  S
Cd317       O318   2.496   1_655  S
Cd317       O321   2.505   1_655  S
C320        O324   1.263       .  A
C320        C347   1.466       .  S
C325        C331   1.487   1_645  S
C325        C383   1.484       .  S
C325        C386   1.490       .  S
C325        C416   1.484   1_655  S
C326        C330   1.490       .  S
C326        C359   1.486   1_455  S
C326        C387   1.489   1_455  S
C326        C438   1.482       .  S
C327        C356   1.484   1_545  S
C327        C381   1.481       .  S
C327        C410   1.487       .  S
C327        C414   1.479       .  S
C328        C353   1.486       .  S
C328        C412   1.486       .  S
C329        C330   1.220       .  T
C331        C332   1.218       .  T
C333        C334   1.399       .  A
C333        C338   1.392       .  A
C333        H339   1.083       .  S
C334        C335   1.406       .  A
C335        C336   1.392       .  A
C335        H340   1.082       .  S
C336        C337   1.399       .  A
C336        H341   1.083       .  S
C337        C338   1.406       .  A
C343        C344   1.399       .  A
C343        C348   1.393       .  A
C343        H349   1.083       .  S
C344        C345   1.406       .  A
C345        C346   1.392       .  A
C345        H350   1.082       .  S
C346        C347   1.399       .  A
C346        H351   1.083       .  S
C347        C348   1.406       .  A
C348        H352   1.082       .  S
C353        C354   1.217       .  T
C355        C356   1.216       .  T
C357        C358   1.214       .  T
C359        C360   1.217       .  T
C361        C362   1.405       .  A
C361        C366   1.402       .  A
C362        C363   1.396       .  A
C363        C364   1.383       .  A
C363        H368   1.085       .  S
C364        C365   1.405       .  A
C364        H369   1.084       .  S
C365        C366   1.400       .  A
C366        H370   1.079       .  S
C371        C372   1.406       .  A
C371        C376   1.405       .  A
C371        H377   1.081       .  S
C372        C373   1.401       .  A
C373        C374   1.371       .  A
C373        H378   1.084       .  S
C374        C375   1.398       .  A
C374        H379   1.084       .  S
C375        C376   1.405       .  A
C376        H380   1.082       .  S
C381        C382   1.214       .  T
C383        C384   1.216       .  T
C385        C386   1.220       .  T
C387        C388   1.219       .  T
C389        C390   1.406       .  A
C389        C394   1.392       .  A
C389        H395   1.082       .  S
C390        C391   1.400       .  A
C391        C392   1.393       .  A
C391        H396   1.083       .  S
C392        C393   1.406       .  A
C392        H397   1.082       .  S
C393        C394   1.399       .  A
C394        H398   1.083       .  S
C399        C400   1.400       .  A
C399        C404   1.394       .  A
C399        H405   1.083       .  S
C400        C401   1.406       .  A
C401        C402   1.393       .  A
C401        H406   1.082       .  S
C402        C403   1.399       .  A
C402        H407   1.083       .  S
C403        C404   1.406       .  A
C409        C410   1.218       .  T
C411        C412   1.218       .  T
C413        C414   1.213       .  T
C415        C416   1.216       .  T
C417        C418   1.397       .  A
C417        C422   1.401       .  A
C417        H423   1.081       .  S
C418        C419   1.403       .  A
C419        C420   1.385       .  A
C420        C421   1.392       .  A
C420        H425   1.084       .  S
C421        C422   1.407       .  A
C422        H426   1.082       .  S
C427        C428   1.396       .  A
C427        C432   1.373       .  A
C427        H433   1.085       .  S
C428        C429   1.405       .  A
C429        C430   1.404       .  A
C429        H434   1.082       .  S
C430        C431   1.402       .  A
C430        H435   1.078       .  S
C431        C432   1.401       .  A
C432        H436   1.083       .  S
C437        C438   1.215       .  T
C439        C440   1.214       .  T
