geometry optimzed in LAMMPS
_audit_creation_date              2020-11-30 
_audit_creation_method            'lammps2cif' 
_symmetry_space_group_name_H-M    'P1' 
_symmetry_Int_Tables_number       1 
_symmetry_cell_setting            triclinic 
loop_ 
_symmetry_equiv_pos_as_xyz 
  x,y,z 
_cell_length_a                    35.28036148 
_cell_length_b                    35.523017072633266 
_cell_length_c                    35.447129365038975 
_cell_angle_alpha                 89.95062489262142 
_cell_angle_beta                  89.96205722729592 
_cell_angle_gamma                 89.80238731288243 
loop_ 
_atom_site_label 
_atom_site_type_symbol 
_atom_site_fract_x 
_atom_site_fract_y 
_atom_site_fract_z 
_atom_site_charge 
N1          N  0.49633285  0.94539014  0.49772307    -0.36900
N2          N  0.50327086  0.00337891  0.55536696    -0.57500
N3          N  0.50097294  0.06042158  0.49610268    -0.36900
N4          N  0.49645634  0.00247827  0.43845858    -0.57500
C5          C  0.50320507  0.92378526  0.52844162     0.26700
C6          C  0.50113625  0.92329399  0.46700388     0.26700
C7          C  0.50993399  0.08201436  0.52624078     0.26700
C8          C  0.50625933  0.08163037  0.46476823     0.26700
C9          C  0.49772743  0.97333425  0.57814252     0.35300
C10         C  0.50074073  0.03437065  0.57736792     0.35300
C11         C  0.49035468  0.97175101  0.41682901     0.35300
C12         C  0.49158740  0.03294149  0.41603120     0.35300
C13         C  0.51176244  0.88735427  0.51709694    -0.22200
C14         C  0.51057605  0.88706966  0.47845095    -0.22200
C15         C  0.52055404  0.11750355  0.51390504    -0.22200
C16         C  0.51824217  0.11729238  0.47529170    -0.22200
C17         C  0.49242858  0.98525051  0.61500874    -0.23300
C18         C  0.49429213  0.02394284  0.61451015    -0.23300
C19         C  0.48187747  0.98270320  0.38024563    -0.23300
C20         C  0.48264601  0.02146047  0.37974159    -0.23300
C21         C  0.49974783  0.93529140  0.56648887    -0.18600
C22         C  0.49503236  0.93404674  0.42902047    -0.18600
C23         C  0.49826394  0.07066173  0.42714203    -0.18600
C24         C  0.50595549  0.07177716  0.56466567    -0.18600
H25         H  0.51778986  0.86318969  0.53472748     0.14300
H26         H  0.51549738  0.86262620  0.46089796     0.14300
H27         H  0.52841156  0.14147671  0.53091561     0.14300
H28         H  0.52401760  0.14116656  0.45725423     0.14300
H29         H  0.48801984  0.96788058  0.63971779     0.12600
H30         H  0.49154676  0.04226626  0.63874797     0.12600
H31         H  0.47639533  0.96465772  0.35628851     0.12600
H32         H  0.47805639  0.03908612  0.35525594     0.12600
H33         H  0.48483608  0.97225823  0.49792528     0.25800
H34         H  0.48761352  0.03453119  0.49715747     0.25800
N35         N  0.93803881  0.50241699  0.50466011    -0.36900
N36         N  0.99446522  0.44209609  0.50505433    -0.57500
N37         N  0.05366042  0.49855286  0.50638329    -0.36900
N38         N  0.99717287  0.55895004  0.50772003    -0.57500
C39         C  0.91570888  0.47243674  0.51213034     0.26700
C40         C  0.91708388  0.53374787  0.51099386     0.26700
C41         C  0.07485241  0.46697200  0.51097221     0.26700
C42         C  0.07616989  0.52844801  0.51384571     0.26700
C43         C  0.96289850  0.42124291  0.49984865     0.35300
C44         C  0.02450643  0.41915305  0.49874852     0.35300
C45         C  0.96723424  0.58194862  0.50119779     0.35300
C46         C  0.02872276  0.58014471  0.50398816     0.35300
C47         C  0.88007712  0.48499896  0.52322884    -0.22200
C48         C  0.88094617  0.52359426  0.52244841    -0.22200
C49         C  0.11140574  0.47707142  0.52117287    -0.22200
C50         C  0.11220507  0.51565932  0.52301939    -0.22200
C51         C  0.97290338  0.38456732  0.49082192    -0.23300
C52         C  0.01191051  0.38324127  0.49012111    -0.23300
C53         C  0.97974923  0.61821351  0.49414404    -0.23300
C54         C  0.01871132  0.61708912  0.49597144    -0.23300
C55         C  0.92535587  0.43426033  0.50568890    -0.18600
C56         C  0.92879110  0.57112787  0.50409736    -0.18600
C57         C  0.06631528  0.56692209  0.50911602    -0.18600
C58         C  0.06299051  0.42954017  0.50347160    -0.18600
H59         H  0.85548003  0.46829138  0.53020518     0.14300
H60         H  0.85731016  0.54198204  0.52891975     0.14300
H61         H  0.13552411  0.45879606  0.52585513     0.14300
H62         H  0.13701883  0.53231868  0.52925333     0.14300
H63         H  0.95410237  0.36108758  0.48580529     0.12600
H64         H  0.02898643  0.35850329  0.48454010     0.12600
H65         H  0.96260143  0.64295427  0.48870686     0.12600
H66         H  0.03748494  0.64080162  0.49205160     0.12600
H67         H  0.96410768  0.50158583  0.49114717     0.25800
H68         H  0.02702909  0.49983473  0.49419677     0.25800
N69         N  0.50249700  0.50289934  0.94277222    -0.36900
N70         N  0.44220500  0.50187410  0.99980068    -0.57500
N71         N  0.49990137  0.50330680  0.05838730    -0.36900
N72         N  0.56006458  0.50705188  0.00141725    -0.57500
C73         C  0.47175354  0.50750379  0.92038543     0.26700
C74         C  0.53362825  0.50920280  0.92129495     0.26700
C75         C  0.46838445  0.50718801  0.07990033     0.26700
C76         C  0.53014267  0.51053001  0.08067503     0.26700
C77         C  0.42058149  0.49741645  0.96861732     0.35300
C78         C  0.41931048  0.49667325  0.03002913     0.35300
C79         C  0.58332631  0.50307797  0.97131094     0.35300
C80         C  0.58193480  0.50400264  0.03258749     0.35300
C81         C  0.48363944  0.51617634  0.88404850    -0.22200
C82         C  0.52246364  0.51716107  0.88460825    -0.22200
C83         C  0.47890001  0.51642708  0.11646490    -0.22200
C84         C  0.51767219  0.51855864  0.11693753    -0.22200
C85         C  0.38350315  0.48988179  0.97909417    -0.23300
C86         C  0.38270436  0.48939139  0.01796113    -0.23300
C87         C  0.62037999  0.49820122  0.98341565    -0.23300
C88         C  0.61949962  0.49879785  0.02222531    -0.23300
C89         C  0.43333654  0.50201650  0.93093401    -0.18600
C90         C  0.57189976  0.50590111  0.93311268    -0.18600
C91         C  0.56880114  0.50758386  0.07019078    -0.18600
C92         C  0.43051105  0.50064285  0.06826252    -0.18600
H93         H  0.46630551  0.52071146  0.85928603     0.14300
H94         H  0.54028023  0.52258428  0.86037489     0.14300
H95         H  0.46072041  0.52062818  0.14069175     0.14300
H96         H  0.53467102  0.52465827  0.14156800     0.14300
H97         H  0.35946474  0.48553607  0.96066781     0.12600
H98         H  0.35792713  0.48467290  0.03533048     0.12600
H99         H  0.64546373  0.49488632  0.96611697     0.12600
H100        H  0.64377609  0.49600226  0.04067875     0.12600
H101        H  0.50235119  0.49205158  0.96984623     0.25800
H102        H  0.50100331  0.49217255  0.03146639     0.25800
N103        N  0.99859375  0.56115383  0.99525131    -0.36900
N104        N  0.00082395  0.50233580  0.93729861    -0.57500
N105        N  0.00116408  0.44596815  0.99625976    -0.36900
N106        N  0.99639763  0.50456158  0.05412743    -0.57500
C107        C  0.99228236  0.58202597  0.96393516     0.26700
C108        C  0.99078783  0.58316403  0.02548114     0.26700
C109        C  0.99689778  0.42350791  0.96572962     0.26700
C110        C  0.99440353  0.42468171  0.02715039     0.26700
C111        C  0.00580609  0.53282203  0.91504674     0.35300
C112        C  0.00735822  0.47168518  0.91556384     0.35300
C113        C  0.00022239  0.53533820  0.07620360     0.35300
C114        C  0.00106141  0.47429216  0.07677858     0.35300
C115        C  0.98077793  0.61794311  0.97446849    -0.22200
C116        C  0.97988744  0.61865298  0.01321538    -0.22200
C117        C  0.98790023  0.38736529  0.97751500    -0.22200
C118        C  0.98615550  0.38814040  0.01615871    -0.22200
C119        C  0.01500510  0.52143487  0.87872189    -0.23300
C120        C  0.01601211  0.48271208  0.87907875    -0.23300
C121        C  0.00655087  0.52453602  0.11327558    -0.23300
C122        C  0.00709981  0.48584885  0.11362862    -0.23300
C123        C  0.99938490  0.57056984  0.92629212    -0.18600
C124        C  0.99572716  0.57293900  0.06377055    -0.18600
C125        C  0.99817951  0.43638750  0.06507115    -0.18600
C126        C  0.00333678  0.43394987  0.92771369    -0.18600
H127        H  0.97439135  0.64157867  0.95625430     0.14300
H128        H  0.97258766  0.64282807  0.03032660     0.14300
H129        H  0.98395499  0.36261813  0.96024447     0.14300
H130        H  0.98030938  0.36419523  0.03412164     0.14300
H131        H  0.01992360  0.53912208  0.85434030     0.12600
H132        H  0.02192325  0.46475399  0.85512541     0.12600
H133        H  0.00996830  0.54259112  0.13761060     0.12600
H134        H  0.01115780  0.46824545  0.13824813     0.12600
H135        H  0.01193671  0.53513913  0.99594466     0.25800
H136        H  0.01253531  0.47279247  0.99635249     0.25800
N137        N  0.55635619  0.00495198  0.00111639    -0.36900
N138        N  0.49478877  0.05961928  0.00375085    -0.57500
N139        N  0.44013688  0.99760887  0.00359410    -0.36900
N140        N  0.50169154  0.94301654  0.00410278    -0.57500
C141        C  0.57649720  0.03686670  0.00664330     0.26700
C142        C  0.58014169  0.97552355  0.00677322     0.26700
C143        C  0.41638591  0.02711803  0.00883721     0.26700
C144        C  0.42014192  0.96573721  0.00999873     0.26700
C145        C  0.52402236  0.08383713  0.99936675     0.35300
C146        C  0.46255209  0.07990493  0.99947742     0.35300
C147        C  0.53379221  0.92274465  0.99891549     0.35300
C148        C  0.47233011  0.91886712  0.00038197     0.35300
C149        C  0.61372447  0.02756826  0.01521424    -0.22200
C150        C  0.61602653  0.98897915  0.01530377    -0.22200
C151        C  0.38067944  0.01378968  0.01832371    -0.22200
C152        C  0.38307180  0.97516265  0.01913099    -0.22200
C153        C  0.51026438  0.11990977  0.99321613    -0.23300
C154        C  0.47137406  0.11742448  0.99324739    -0.23300
C155        C  0.52479200  0.88532375  0.99250099    -0.23300
C156        C  0.48590933  0.88287745  0.99336637    -0.23300
C157        C  0.56292073  0.07418747  0.00233738    -0.18600
C158        C  0.57112355  0.93693092  0.00233653    -0.18600
C159        C  0.43357108  0.92839103  0.00523624    -0.18600
C160        C  0.42525123  0.06557055  0.00290146    -0.18600
H161        H  0.63702816  0.04657174  0.02053376     0.14300
H162        H  0.64149617  0.97277435  0.02062623     0.14300
H163        H  0.35526236  0.03010217  0.02356165     0.14300
H164        H  0.35986234  0.95621094  0.02506670     0.14300
H165        H  0.52653361  0.14539271  0.98928057     0.12600
H166        H  0.45184137  0.14068332  0.98948508     0.12600
H167        H  0.54420027  0.86207479  0.98820768     0.12600
H168        H  0.46955827  0.85740978  0.98973062     0.12600
H169        H  0.52927097  0.00333039  0.99005748     0.25800
H170        H  0.46695981  0.99912028  0.99190074     0.25800
O171        O  0.79835433  0.71662486  0.81913278    -0.78800
C172        C  0.71326294  0.80814695  0.83476632     0.82200
O173        O  0.68723502  0.68058825  0.74919769    -0.79900
O174        O  0.68409871  0.81276492  0.71459201    -0.81400
O175        O  0.81709800  0.80504536  0.71284331    -0.81200
O176        O  0.83640235  0.73278053  0.77170007    -0.79800
Zn177      Zn  0.74656987  0.73538549  0.80257807     1.55700
O178        O  0.77010325  0.84347438  0.73016889    -0.81200
Cd179      Cd  0.79967787  0.75311996  0.73177738     1.59700
Cd180      Cd  0.71413808  0.72214187  0.71737722     1.59600
O181        O  0.80435289  0.71812803  0.68650154    -0.81200
O182        O  0.74695444  0.75390291  0.75109610    -1.91700
Cd183      Cd  0.72913670  0.80714387  0.75036113     1.59900
O184        O  0.74642105  0.69641675  0.67523295    -0.81200
O185        O  0.71102261  0.82424699  0.80278579    -0.79800
C186        C  0.68971158  0.67303679  0.78435791     0.82700
C187        C  0.83112418  0.71821254  0.80407232     0.82400
O188        O  0.72741310  0.77530420  0.83876344    -0.78800
C189        C  0.80215733  0.83761889  0.71467078     0.83200
O190        O  0.71117464  0.69176653  0.80616285    -0.78900
C191        C  0.78159616  0.69835234  0.66713537     0.83300
C192        C  0.66598307  0.79082395  0.69285118     0.83600
O193        O  0.67358373  0.75569757  0.69084040    -0.81300
O194        O  0.16514031  0.72871467  0.76791997    -0.78800
C195        C  0.19859059  0.83489820  0.71546769     0.82200
O196        O  0.25615516  0.69592547  0.67154520    -0.79900
O197        O  0.31664845  0.81080622  0.72019238    -0.81400
O198        O  0.27574123  0.76676210  0.84040430    -0.81200
O199        O  0.19933215  0.71117909  0.81764447    -0.79800
Zn200      Zn  0.20117789  0.74988882  0.72945392     1.55700
O201        O  0.28793555  0.81834011  0.80700580    -0.81200
Cd202      Cd  0.25289967  0.72942929  0.80166905     1.59700
Cd203      Cd  0.28696692  0.72061543  0.71531750     1.59600
O204        O  0.28852194  0.68385140  0.80375388    -0.81200
O205        O  0.25236163  0.75051095  0.74941957    -1.91700
Cd206      Cd  0.26995601  0.80363627  0.75330086     1.59900
O207        O  0.31352450  0.67768053  0.74616935    -0.81200
O208        O  0.22974934  0.84049528  0.73270229    -0.79800
C209        C  0.22066549  0.69652771  0.66456933     0.82700
C210        C  0.16772026  0.71329385  0.80032648     0.82400
O211        O  0.18451833  0.80202487  0.71210762    -0.78800
C212        C  0.28911290  0.79998872  0.83786543     0.83200
O213        O  0.19746448  0.71525710  0.68470354    -0.78900
C214        C  0.31036756  0.66719745  0.78053908     0.83300
C215        C  0.33615499  0.79022234  0.69818291     0.83600
O216        O  0.32833388  0.75568230  0.69210703    -0.81300
O217        O  0.77266259  0.16340829  0.73299325    -0.78800
C218        C  0.71204861  0.20155048  0.83638640     0.82200
O219        O  0.67174997  0.25299571  0.69883260    -0.79900
O220        O  0.72322848  0.31886230  0.81092195    -0.81400
O221        O  0.84146270  0.27390201  0.76772713    -0.81200
O222        O  0.81937980  0.19998910  0.71204694    -0.79800
Zn223      Zn  0.73261987  0.19975641  0.75274117     1.55700
O224        O  0.80959203  0.28327495  0.82091810    -0.81200
Cd225      Cd  0.80233959  0.25258371  0.73023639     1.59700
Cd226      Cd  0.71559002  0.28485277  0.72232908     1.59600
O227        O  0.80371119  0.28809936  0.68502466    -0.81200
O228        O  0.75063170  0.25135688  0.75236320    -1.91700
Cd229      Cd  0.75434312  0.27025710  0.80511900     1.59900
O230        O  0.74531873  0.31157246  0.67909437    -0.81200
O231        O  0.72879058  0.23285915  0.84157464    -0.79800
C232        C  0.66573385  0.21756757  0.70033876     0.82700
C233        C  0.80447391  0.16766844  0.71633261     0.82400
O234        O  0.71269639  0.18489299  0.80452533    -0.78800
C235        C  0.84037263  0.28444526  0.80200934     0.83200
O236        O  0.68771226  0.19558219  0.71846370    -0.78900
C237        C  0.78000286  0.30980783  0.66892850     0.83300
C238        C  0.69992880  0.33722733  0.79049943     0.83600
O239        O  0.69308905  0.32722242  0.75661979    -0.81300
O240        O  0.23390361  0.27770966  0.65885858    -0.78800
C241        C  0.33956683  0.21734129  0.68889006     0.82200
O242        O  0.19856227  0.17895823  0.74250381    -0.79900
O243        O  0.31383962  0.21577210  0.81016063    -0.81400
O244        O  0.28365291  0.34147621  0.76558418    -0.81200
O245        O  0.21923248  0.32547572  0.69685894    -0.79800
Zn246      Zn  0.25565987  0.23712566  0.69209008     1.55700
O247        O  0.33165386  0.30288033  0.77925874    -0.81200
Cd248      Cd  0.24053926  0.30656587  0.74789949     1.59700
Cd249      Cd  0.22346211  0.22062019  0.77597759     1.59600
O250        O  0.19737869  0.31172511  0.78643547    -0.81200
O251        O  0.25760521  0.25315988  0.74444815    -1.91700
Cd252      Cd  0.31091763  0.25032161  0.76354844     1.59900
O253        O  0.18120132  0.25338468  0.80202783    -0.81200
O254        O  0.34583315  0.22716009  0.72285845    -0.79800
C255        C  0.20083651  0.17203271  0.70723476     0.82700
C256        C  0.21917396  0.31001476  0.66445486     0.82400
O257        O  0.30720423  0.22100054  0.67340457    -0.78800
C258        C  0.31719177  0.33581091  0.77768728     0.83200
O259        O  0.22143146  0.19232111  0.68587437    -0.78900
C260        C  0.17606227  0.28895430  0.80427112     0.83300
C261        C  0.28983412  0.19589500  0.82811587     0.83600
O262        O  0.25508030  0.19421068  0.81818135    -0.81300
O263        O  0.72958160  0.77687746  0.16300107    -0.78800
C264        C  0.83376407  0.72210170  0.19588048     0.82200
O265        O  0.69003445  0.68165501  0.25111999    -0.79900
O266        O  0.80841268  0.72018827  0.31440267    -0.81400
O267        O  0.76838700  0.84463619  0.27583658    -0.81200
O268        O  0.71477659  0.82613878  0.19911239    -0.79800
Zn269      Zn  0.74896803  0.73712002  0.19896498     1.55700
O270        O  0.81875499  0.80957086  0.28919322    -0.81200
Cd271      Cd  0.73058931  0.80786739  0.25163747     1.59700
Cd272      Cd  0.71722153  0.72273684  0.28346136     1.59600
O273        O  0.68295029  0.81119846  0.28385650    -0.81200
O274        O  0.74997891  0.75538632  0.25044188    -1.91700
Cd275      Cd  0.80332873  0.75648667  0.26923985     1.59900
O276        O  0.67503745  0.75481061  0.30986263    -0.81200
O277        O  0.84024521  0.73753967  0.22772083    -0.79800
C278        C  0.69209713  0.67447028  0.21586649     0.82700
C279        C  0.71602054  0.80988065  0.16722134     0.82400
O280        O  0.80045458  0.71947188  0.18240581    -0.78800
C281        C  0.80128456  0.84103389  0.29021034     0.83200
O282        O  0.71384285  0.69321210  0.19431879    -0.78900
C283        C  0.66483596  0.78904789  0.30543519     0.83300
C284        C  0.78568774  0.69947130  0.33309095     0.83600
O285        O  0.75060223  0.69689194  0.32458749    -0.81300
O286        O  0.28681970  0.81285849  0.20100431    -0.78800
C287        C  0.19660006  0.82982103  0.29053407     0.82200
O288        O  0.32215187  0.74456052  0.31407396    -0.79900
O289        O  0.18940209  0.70878368  0.31721057    -0.81400
O290        O  0.19437718  0.70944737  0.18405782    -0.81200
O291        O  0.27033951  0.76519652  0.16409515    -0.79800
Zn292      Zn  0.26764720  0.79659054  0.25305169     1.55700
O293        O  0.15768266  0.72615750  0.23233515    -0.81200
Cd294      Cd  0.24779537  0.72647816  0.20110574     1.59700
Cd295      Cd  0.28047761  0.71262378  0.28697566     1.59600
O296        O  0.28254175  0.68045269  0.19713689    -0.81200
O297        O  0.24817790  0.74572775  0.25373878    -1.91700
Cd298      Cd  0.19491265  0.74565006  0.27272457     1.59900
O299        O  0.30638612  0.67079634  0.25470662    -0.81200
O300        O  0.17900849  0.79859463  0.29164635    -0.79800
C301        C  0.33024213  0.77936686  0.31050236     0.82700
C302        C  0.28608019  0.79711786  0.16866382     0.82400
O303        O  0.22907670  0.83230806  0.27485893    -0.78800
C304        C  0.16195481  0.71148414  0.19978113     0.83200
O305        O  0.31159729  0.80032934  0.28803065    -0.78900
C306        C  0.30346834  0.66209284  0.21988359     0.83300
C307        C  0.21191997  0.68742408  0.33549586     0.83600
O308        O  0.24715562  0.68596881  0.32752876    -0.81300
O309        O  0.71369042  0.18702003  0.19569550    -0.78800
C310        C  0.80411468  0.17202095  0.28585005     0.82200
O311        O  0.67398093  0.25414483  0.30673616    -0.79900
O312        O  0.80564695  0.29069343  0.31455986    -0.81400
O313        O  0.80233926  0.29255586  0.17996505    -0.81200
O314        O  0.72765692  0.23617344  0.15959381    -0.79800
Zn315      Zn  0.73180163  0.20256862  0.24829168     1.55700
O316        O  0.83922918  0.27736308  0.22875980    -0.81200
Cd317      Cd  0.74940719  0.27479618  0.19688267     1.59700
Cd318      Cd  0.71582594  0.28714362  0.28180129     1.59600
O319        O  0.71508982  0.32114850  0.19294035    -0.81200
O320        O  0.74922807  0.25451962  0.24917597    -1.91700
Cd321      Cd  0.80213596  0.25622572  0.26853295     1.59900
O322        O  0.68980036  0.32945084  0.24977649    -0.81200
O323        O  0.81973641  0.20420952  0.28737015    -0.79800
C324        C  0.66618563  0.21929956  0.30293549     0.82700
C325        C  0.71335465  0.20352383  0.16368452     0.82400
O326        O  0.77202247  0.16707327  0.26993081    -0.78800
C327        C  0.83458508  0.29140277  0.19598133     0.83200
O328        O  0.68622721  0.19797664  0.28193564    -0.78900
C329        C  0.69355135  0.33927309  0.21532283     0.83300
C330        C  0.78242658  0.31059558  0.33350165     0.83600
O331        O  0.74747019  0.31274202  0.32444931    -0.81300
N332        N  0.00268660  0.00120003  0.55892470    -0.36900
N333        N  0.06090918  0.99877348  0.50073035    -0.57500
N334        N  0.00158660  0.00391184  0.44329206    -0.36900
N335        N  0.94343624  0.00368592  0.50155352    -0.57500
C336        C  0.03370948  0.99387451  0.58025911     0.26700
C337        C  0.97174338  0.99465010  0.58060038     0.26700
C338        C  0.03201759  0.99575919  0.42145079     0.26700
C339        C  0.97022155  0.99906713  0.42182771     0.26700
C340        C  0.08359879  0.00345251  0.53113525     0.35300
C341        C  0.08304402  0.00300263  0.46983919     0.35300
C342        C  0.92147988  0.00801089  0.53257410     0.35300
C343        C  0.92100243  0.01027186  0.47128881     0.35300
C344        C  0.02228646  0.98292941  0.61607836    -0.22200
C345        C  0.98333601  0.98330557  0.61625834    -0.22200
C346        C  0.01983374  0.98597802  0.38556491    -0.22200
C347        C  0.98091934  0.98807744  0.38579721    -0.22200
C348        C  0.12052902  0.00994318  0.51946710    -0.23300
C349        C  0.12017778  0.00962332  0.48065472    -0.23300
C350        C  0.88471497  0.01692646  0.52191120    -0.23300
C351        C  0.88442979  0.01841063  0.48312381    -0.23300
C352        C  0.07194452  0.99940934  0.56918404    -0.18600
C353        C  0.93348637  0.00138916  0.57016234    -0.18600
C354        C  0.93233960  0.00616175  0.43316890    -0.18600
C355        C  0.07054197  0.99937089  0.43206619    -0.18600
H356        H  0.04002848  0.97595269  0.63997363     0.14300
H357        H  0.96568200  0.97675597  0.64033949     0.14300
H358        H  0.03719201  0.97850306  0.36149963     0.14300
H359        H  0.96263937  0.98247773  0.36195601     0.14300
H360        H  0.14524860  0.01398341  0.53704510     0.12600
H361        H  0.14451437  0.01358167  0.46248676     0.12600
H362        H  0.86045817  0.02126169  0.54011422     0.12600
H363        H  0.85993702  0.02412147  0.46562856     0.12600
H364        H  0.00274272  0.01433872  0.53281111     0.25800
H365        H  0.00240648  0.01629132  0.46975296     0.25800
C366        C  0.12655136  0.03320652  0.35055067     0.79900
N367        N  0.10493501  0.03296361  0.38229157    -0.78400
C368        C  0.09899923  0.00023650  0.40136034     0.82300
N369        N  0.11495665  0.96762720  0.38866124    -0.78400
C370        C  0.13745343  0.96785775  0.35741251     0.82400
N371        N  0.14262563  0.00066830  0.33870972    -0.80100
O372        O  0.26649528  0.23044597  0.15969741    -0.78800
C373        C  0.16402714  0.28883694  0.18996205     0.82200
O374        O  0.30136463  0.32624099  0.25162969    -0.79900
O375        O  0.18340956  0.28276580  0.31023595    -0.81400
O376        O  0.22108646  0.16128415  0.26971571    -0.81200
O377        O  0.27458854  0.17851595  0.19371231    -0.79800
Zn378      Zn  0.24782097  0.26998529  0.19575182     1.55700
O379        O  0.17061627  0.19807964  0.27883469    -0.81200
Cd380      Cd  0.26123793  0.19699243  0.24712365     1.59700
Cd381      Cd  0.27563030  0.28192647  0.28224699     1.59600
O382        O  0.30959837  0.19175069  0.27874473    -0.81200
O383        O  0.24406210  0.25052777  0.24680002    -1.91700
Cd384      Cd  0.18992015  0.25066422  0.26283358     1.59900
O385        O  0.31940235  0.24809190  0.30457919    -0.81200
O386        O  0.15590263  0.27324588  0.22129716    -0.79800
C387        C  0.30244804  0.33309353  0.21617677     0.82700
C388        C  0.27571666  0.19587383  0.16231192     0.82400
O389        O  0.19773239  0.28995770  0.17723687    -0.78800
C390        C  0.18713381  0.16623865  0.28086722     0.83200
O391        O  0.28408535  0.31279019  0.19303921    -0.78900
C392        C  0.32903685  0.21368080  0.29946303     0.83300
C393        C  0.20516517  0.30063856  0.33246678     0.83600
O394        O  0.24093086  0.30305952  0.32642248    -0.81300
C395        C  0.03337297  0.35821439  0.12418074     0.79900
N396        N  0.00073804  0.34628067  0.14019980    -0.78400
C397        C  0.96704472  0.36292087  0.13228444     0.82300
N398        N  0.96650320  0.39292454  0.10850165    -0.78400
C399        C  0.99938156  0.40664684  0.09401500     0.82400
N400        N  0.03278383  0.38902444  0.10154500    -0.80100
C401        C  0.34885221  0.12623173  0.96407644     0.79900
N402        N  0.33172038  0.13758897  0.99640488    -0.78400
C403        C  0.34483684  0.12702949  0.03080426     0.82300
N404        N  0.37628335  0.10496302  0.03259052    -0.78400
C405        C  0.39323695  0.09241325  0.00054810     0.82400
N406        N  0.37923692  0.10272382  0.96632183    -0.80100
C407        C  0.53274632  0.14738805  0.36513198     0.79900
N408        N  0.49947594  0.16220177  0.35275297    -0.78400
C409        C  0.46583049  0.14611061  0.36191160     0.82300
N410        N  0.46558364  0.11557462  0.38515545    -0.78400
C411        C  0.49869911  0.10049988  0.39784672     0.82400
N412        N  0.53214394  0.11654958  0.38779237    -0.80100
C413        C  0.86085299  0.97439868  0.36340943     0.79900
N414        N  0.88719873  0.97410379  0.39135403    -0.78400
C415        C  0.90273233  0.00696640  0.40348492     0.82300
N416        N  0.89312183  0.04003349  0.38633431    -0.78400
C417        C  0.86780707  0.04017240  0.35732206     0.82400
N418        N  0.85124585  0.00744376  0.34691942    -0.80100
C419        C  0.63527000  0.14097544  0.96665448     0.79900
N420        N  0.64852481  0.15555004  0.99933022    -0.78400
C421        C  0.63412107  0.14469305  0.03304619     0.82300
N422        N  0.60586967  0.11872807  0.03401978    -0.78400
C423        C  0.59149170  0.10470374  0.00123706     0.82400
N424        N  0.60662997  0.11547922  0.96755446    -0.80100
C425        C  0.62877674  0.47418008  0.14895083     0.79900
N426        N  0.60753923  0.47461477  0.11701358    -0.78400
C427        C  0.59684822  0.50775820  0.10112429     0.82300
N428        N  0.60613370  0.54070810  0.11818458    -0.78400
C429        C  0.62599325  0.54061840  0.15105910     0.82400
N430        N  0.63757963  0.50727126  0.16595674    -0.80100
C431        C  0.84748189  0.37539690  0.46865334     0.79900
N432        N  0.82930749  0.36609626  0.50110914    -0.78400
C433        C  0.84254395  0.37743855  0.53515150     0.82300
N434        N  0.87526530  0.39752834  0.53657704    -0.78400
C435        C  0.89389136  0.40690910  0.50437893     0.82400
N436        N  0.87963336  0.39621336  0.47050093    -0.80100
C437        C  0.36996208  0.46526802  0.14622923     0.79900
N438        N  0.36081324  0.49819759  0.16325792    -0.78400
C439        C  0.37098411  0.53188590  0.14843467     0.82300
N440        N  0.39075985  0.53226932  0.11552974    -0.78400
C441        C  0.40118905  0.49958261  0.09834124     0.82400
N442        N  0.39114888  0.46605076  0.11408586    -0.80100
C443        C  0.02968886  0.64278593  0.13362050     0.79900
N444        N  0.02947610  0.61536943  0.10693974    -0.78400
C445        C  0.99595549  0.60332858  0.09232916     0.82300
N446        N  0.96280916  0.61949616  0.10376390    -0.78400
C447        C  0.96307971  0.64713602  0.13030661     0.82400
N448        N  0.99661600  0.65856579  0.14474412    -0.80100
C449        C  0.36447386  0.85578972  0.03681187     0.79900
N450        N  0.39067590  0.88384730  0.03754374    -0.78400
C451        C  0.40514656  0.89768474  0.00467457     0.82300
N452        N  0.39209347  0.88459725  0.97104483    -0.78400
C453        C  0.36591097  0.85666366  0.97016467     0.82400
N454        N  0.35234910  0.84242271  0.00302382    -0.80100
C455        C  0.46226692  0.85359781  0.37159896     0.79900
N456        N  0.49584387  0.83879879  0.36022211    -0.78400
C457        C  0.52896964  0.85634490  0.36823098     0.82300
N458        N  0.52834141  0.88850309  0.38896736    -0.78400
C459        C  0.49488155  0.90356733  0.40066049     0.82400
N460        N  0.46191912  0.88572463  0.39241558    -0.80100
C461        C  0.14997211  0.62416407  0.53612212     0.79900
N462        N  0.16360016  0.63274995  0.50139310    -0.78400
C463        C  0.14471948  0.62325949  0.46954087     0.82300
N464        N  0.11208195  0.60334449  0.47238027    -0.78400
C465        C  0.09786717  0.59425427  0.50684724     0.82400
N466        N  0.11660837  0.60510270  0.53865871    -0.80100
C467        C  0.64833172  0.87419222  0.96872212     0.79900
N468        N  0.61764967  0.89745451  0.96900082    -0.78400
C469        C  0.60300092  0.90981392  0.00225784     0.82300
N470        N  0.61986741  0.89991008  0.03529544    -0.78400
C471        C  0.65152652  0.87802565  0.03507727     0.82400
N472        N  0.66509125  0.86489632  0.00183584    -0.80100
C473        C  0.13323682  0.36020951  0.46673446     0.79900
N474        N  0.10402277  0.38531555  0.46812430    -0.78400
C475        C  0.09260431  0.39967662  0.50195554     0.82300
N476        N  0.11163357  0.39000937  0.53396593    -0.78400
C477        C  0.14174854  0.36603859  0.53243682     0.82400
N478        N  0.15128689  0.35029606  0.49891948    -0.80100
C479        C  0.97440876  0.35304993  0.86863281     0.79900
N480        N  0.97299548  0.38628700  0.88765178    -0.78400
C481        C  0.00542332  0.40323418  0.89951487     0.82300
N482        N  0.03957580  0.38744147  0.89114660    -0.78400
C483        C  0.04132566  0.35479597  0.87121194     0.82400
N484        N  0.00877208  0.33746312  0.86094930    -0.80100
C485        C  0.13873589  0.03583610  0.64131730     0.79900
N486        N  0.14882997  0.00353056  0.65914931    -0.78400
C487        C  0.13512457  0.96970332  0.64783500     0.82300
N488        N  0.11153373  0.96841069  0.61748720    -0.78400
C489        C  0.10118802  0.00059465  0.59926360     0.82400
N490        N  0.11482128  0.03432692  0.61128387    -0.80100
C491        C  0.53823466  0.15224122  0.62248500     0.79900
N492        N  0.53872608  0.11868855  0.60400599    -0.78400
C493        C  0.50561864  0.10275239  0.59255990     0.82300
N494        N  0.47215462  0.11994887  0.60071313    -0.78400
C495        C  0.47158764  0.15338893  0.61925582     0.82400
N496        N  0.50471162  0.16933645  0.63000143    -0.80100
C497        C  0.38068838  0.46849777  0.84769130     0.79900
N498        N  0.39738602  0.46874527  0.88222957    -0.78400
C499        C  0.40519374  0.50174142  0.89993705     0.82300
N500        N  0.39541784  0.53482206  0.88317689    -0.78400
C501        C  0.37891382  0.53532212  0.84856735     0.82400
N502        N  0.37199154  0.50197896  0.83124260    -0.80100
C503        C  0.86713318  0.03457165  0.64475308     0.79900
N504        N  0.89200262  0.03437856  0.61537841    -0.78400
C505        C  0.90452769  0.00121539  0.60055976     0.82300
N506        N  0.89334754  0.96804504  0.61627736    -0.82400
C507        C  0.86978652  0.96812582  0.64665771     0.82400
N508        N  0.85615312  0.00127114  0.65979815    -0.80100
C509        C  0.96538341  0.64299164  0.85887501     0.79900
N510        N  0.96584068  0.61532689  0.88532854    -0.78400
C511        C  0.99921454  0.59997142  0.89686433     0.82300
N512        N  0.03248581  0.61327629  0.88297441    -0.78400
C513        C  0.03227997  0.64084374  0.85643497     0.82400
N514        N  0.99878552  0.65552258  0.84466467    -0.80100
C515        C  0.46570349  0.86076414  0.63101438     0.79900
N516        N  0.49876185  0.84429497  0.64106312    -0.78400
C517        C  0.53215586  0.85675883  0.62729684     0.82300
N518        N  0.53251665  0.88794848  0.60504327    -0.78400
C519        C  0.49947251  0.90539467  0.59549098     0.82400
N520        N  0.46588020  0.89132012  0.60795425    -0.80100
C521        C  0.63759825  0.47235615  0.85875446     0.79900
N522        N  0.61542962  0.47295534  0.89011991    -0.78400
C523        C  0.60139843  0.50610563  0.90331853     0.82300
N524        N  0.60908016  0.53858467  0.88451814    -0.78400
C525        C  0.63037434  0.53811004  0.85250617     0.82400
N526        N  0.64485160  0.50490978  0.84015944    -0.80100
C527        C  0.85411976  0.63522653  0.46705032     0.79900
N528        N  0.88357248  0.61039683  0.46841076    -0.78400
C529        C  0.89901823  0.60046088  0.50217913     0.82300
N530        N  0.88372245  0.61387096  0.53464249    -0.78400
C531        C  0.85422727  0.63845231  0.53369482     0.82400
N532        N  0.83973762  0.64890044  0.49983767    -0.80100
C533        C  0.18723267  0.31752753  0.36658707    -0.06400
C534        C  0.15670972  0.29803323  0.38318870    -0.17600
C535        C  0.13742613  0.31219389  0.41469069     0.10800
C536        C  0.14874208  0.34671843  0.43053653    -0.06400
C537        C  0.17932199  0.36619235  0.41442716    -0.17600
C538        C  0.19833593  0.35230434  0.38246789     0.10800
S539        S  0.09972861  0.28404880  0.43427575    -0.32600
S540        S  0.23566379  0.38075867  0.36291871    -0.32600
H541        H  0.22559913  0.37416456  0.32510591     0.28800
H542        H  0.07860558  0.31414149  0.44920975     0.28800
H543        H  0.14789252  0.27118734  0.37169343     0.19400
H544        H  0.18858087  0.39239835  0.42700298     0.19400
C545        C  0.35665659  0.42946022  0.16369922    -0.06400
C546        C  0.35132144  0.42853606  0.20309469    -0.17600
C547        C  0.33567162  0.39722639  0.22144804     0.10800
C548        C  0.32454355  0.36540601  0.20019765    -0.06400
C549        C  0.33163649  0.36575172  0.16095810    -0.17600
C550        C  0.34681437  0.39725084  0.14256420     0.10800
S551        S  0.32871915  0.40098214  0.27160277    -0.32600
S552        S  0.34959850  0.39542018  0.09181441    -0.32600
H553        H  0.33232788  0.43081269  0.08655132     0.28800
H554        H  0.35084081  0.36885786  0.27939118     0.28800
H555        H  0.35893025  0.45280807  0.21993843     0.19400
H556        H  0.32369312  0.34176958  0.14387231     0.19400
C557        C  0.43001821  0.16286332  0.34725302    -0.06400
C558        C  0.42845752  0.20200243  0.34114547    -0.17600
C559        C  0.39628101  0.21948000  0.32577090     0.10800
C560        C  0.36378168  0.19778061  0.31744282    -0.06400
C561        C  0.36520295  0.15870504  0.32417698    -0.17600
C562        C  0.39789539  0.14103641  0.33802441     0.10800
S563        S  0.39976269  0.26897202  0.31520046    -0.32600
S564        S  0.39749954  0.09034065  0.34030354    -0.32600
H565        H  0.43367530  0.08627515  0.32403291     0.28800
H566        H  0.38462505  0.26544501  0.27864698     0.28800
H567        H  0.45294446  0.21918023  0.34756089     0.19400
H568        H  0.34091825  0.14136696  0.31744242     0.19400
C569        C  0.28985407  0.17577819  0.12853937    -0.06400
C570        C  0.31717617  0.14736611  0.13344300    -0.17600
C571        C  0.33455448  0.12973806  0.10263857     0.10800
C572        C  0.32549551  0.14151023  0.06541561    -0.06400
C573        C  0.29697661  0.16906996  0.06079629    -0.17600
C574        C  0.27873248  0.18563972  0.09157931     0.10800
S575        S  0.36743540  0.09238100  0.11354420    -0.32600
S576        S  0.24083235  0.21836225  0.08147464    -0.32600
H577        H  0.21769321  0.20642817  0.11152301     0.28800
H578        H  0.35009791  0.06671627  0.08879494     0.28800
H579        H  0.32557525  0.13906386  0.16166588     0.19400
H580        H  0.28848099  0.17807688  0.03284824     0.19400
C581        C  0.13327143  0.30636859  0.16825291    -0.06400
C582        C  0.10204352  0.28415338  0.15880329    -0.17600
C583        C  0.07052611  0.29974291  0.14083525     0.10800
C584        C  0.06922380  0.33896528  0.13382142    -0.06400
C585        C  0.10156821  0.36072331  0.14091942    -0.17600
C586        C  0.13354516  0.34487292  0.15818055     0.10800
S587        S  0.03343973  0.26781402  0.12689029    -0.32600
S588        S  0.17245237  0.37584372  0.16904245    -0.32600
H589        H  0.18174683  0.35906322  0.20377965     0.28800
H590        H  0.02190773  0.28889790  0.09526325     0.28800
H591        H  0.10228660  0.25434211  0.16539739     0.19400
H592        H  0.10106496  0.39071958  0.13532483     0.19400
C593        C  0.13584003  0.06883361  0.33074627    -0.06400
C594        C  0.13975996  0.10198879  0.35196792    -0.17600
C595        C  0.15538141  0.13455023  0.33604583     0.10800
C596        C  0.16710991  0.13422671  0.29793619    -0.06400
C597        C  0.16139330  0.10191345  0.27617505    -0.17600
C598        C  0.14506126  0.06965703  0.29178810     0.10800
S599        S  0.16186576  0.17472290  0.36648150    -0.32600
S600        S  0.13589232  0.03105422  0.26006407    -0.32600
H601        H  0.10256608  0.01940122  0.27846179     0.28800
H602        H  0.19658580  0.18627853  0.35087404     0.28800
H603        H  0.13270058  0.10198567  0.38172282     0.19400
H604        H  0.16954080  0.10190390  0.24667893     0.19400
C605        C  0.83130255  0.36325675  0.43197158    -0.06400
C606        C  0.79176688  0.35912644  0.42926867    -0.17600
C607        C  0.77469210  0.34296742  0.39758286     0.10800
C608        C  0.79748606  0.33101852  0.36693774    -0.06400
C609        C  0.83690645  0.33698812  0.36894646    -0.17600
C610        C  0.85392156  0.35294770  0.40071440     0.10800
S611        S  0.72410896  0.33649419  0.39953067    -0.32600
S612        S  0.90480356  0.35668813  0.40041039    -0.32600
H613        H  0.90388198  0.39629060  0.40143316     0.28800
H614        H  0.72617955  0.29784653  0.39101472     0.28800
H615        H  0.77388782  0.36754118  0.45262529     0.19400
H616        H  0.85500457  0.32857207  0.34570346     0.19400
C617        C  0.67320910  0.37271751  0.19989026    -0.06400
C618        C  0.66841859  0.37498728  0.16049852    -0.17600
C619        C  0.65400278  0.40732288  0.14311171     0.10800
C620        C  0.64239195  0.43821717  0.16547553    -0.06400
C621        C  0.64522964  0.43530621  0.20493170    -0.17600
C622        C  0.66088073  0.40339872  0.22229478     0.10800
S623        S  0.65419030  0.40810713  0.09223327    -0.32600
S624        S  0.66636535  0.40501034  0.27277443    -0.32600
H625        H  0.70517018  0.39573186  0.27161186     0.28800
H626        H  0.66992603  0.44437305  0.08971523     0.28800
H627        H  0.67744925  0.35184601  0.14268914     0.19400
H628        H  0.63619952  0.45863732  0.22248026     0.19400
C629        C  0.65102676  0.15998064  0.06801822    -0.06400
C630        C  0.66235628  0.13522316  0.09682598    -0.17600
C631        C  0.68388854  0.14783606  0.12768943     0.10800
C632        C  0.69356924  0.18647478  0.13060581    -0.06400
C633        C  0.68139212  0.21107867  0.10185514    -0.17600
C634        C  0.66020607  0.19850105  0.07114408     0.10800
S635        S  0.69980558  0.11275813  0.16084867    -0.32600
S636        S  0.64475732  0.23353024  0.03749870    -0.32600
H637        H  0.61036339  0.21570849  0.02857217     0.28800
H638        H  0.73678375  0.12727170  0.16341029     0.28800
H639        H  0.65605337  0.10548889  0.09431957     0.19400
H640        H  0.68751006  0.24089538  0.10362463     0.19400
C641        C  0.85686005  0.07542082  0.33751423    -0.06400
C642        C  0.85235672  0.10877421  0.35828188    -0.17600
C643        C  0.83570516  0.14084367  0.34202159     0.10800
C644        C  0.82327448  0.13973388  0.30403381    -0.06400
C645        C  0.82930801  0.10704272  0.28288281    -0.17600
C646        C  0.84685311  0.07543809  0.29876755     0.10800
S647        S  0.82909601  0.18142918  0.37193277    -0.32600
S648        S  0.85709086  0.03667925  0.26748347    -0.32600
H649        H  0.89102191  0.02622520  0.28561382     0.28800
H650        H  0.79375433  0.19200116  0.35687018     0.28800
H651        H  0.86003262  0.10932041  0.38787393     0.19400
H652        H  0.82100035  0.10640852  0.25345244     0.19400
C653        C  0.63304230  0.20237124  0.32271681    -0.06400
C654        C  0.63259334  0.16302519  0.32767900    -0.17600
C655        C  0.60125939  0.14449950  0.34308319     0.10800
C656        C  0.56894187  0.16543069  0.35390980    -0.06400
C657        C  0.56990225  0.20484987  0.35061540    -0.17600
C658        C  0.60118335  0.22346822  0.33503610     0.10800
S659        S  0.60303321  0.09388682  0.34484375    -0.32600
S660        S  0.59706974  0.27372557  0.32940037    -0.32600
H661        H  0.60651037  0.27294439  0.29081957     0.28800
H662        H  0.60172317  0.09300703  0.38451493     0.28800
H663        H  0.65667609  0.14621097  0.31879444     0.19400
H664        H  0.54538022  0.22131124  0.35899699     0.19400
C665        C  0.86741956  0.30803389  0.17661065    -0.06400
C666        C  0.86420086  0.34466102  0.16202656    -0.17600
C667        C  0.89586595  0.36384876  0.14793455     0.10800
C668        C  0.93166831  0.34553339  0.14717399    -0.06400
C669        C  0.93413020  0.30835253  0.16095649    -0.17600
C670        C  0.90269557  0.28953915  0.17533519     0.10800
S671        S  0.88861976  0.41208504  0.13382781    -0.32600
S672        S  0.90935426  0.24153030  0.19069850    -0.32600
H673        H  0.87305414  0.22919895  0.18005431     0.28800
H674        H  0.91991066  0.42556353  0.15433113     0.28800
H675        H  0.83715380  0.35917387  0.16341016     0.19400
H676        H  0.96078137  0.29324016  0.16033235     0.19400
C677        C  0.16082965  0.63448842  0.43256562    -0.06400
C678        C  0.20049336  0.63576240  0.42924508    -0.17600
C679        C  0.21823055  0.65003216  0.39701262     0.10800
C680        C  0.19593614  0.66478967  0.36721188    -0.06400
C681        C  0.15622048  0.66086439  0.36944318    -0.17600
C682        C  0.13850108  0.64614806  0.40156996     0.10800
S683        S  0.26926234  0.64979763  0.39693968    -0.32600
S684        S  0.08741368  0.64590156  0.40200691    -0.32600
H685        H  0.08451234  0.66280933  0.43777143     0.28800
H686        H  0.27155510  0.62952504  0.36289579     0.28800
H687        H  0.21805707  0.62588313  0.45232636     0.19400
H688        H  0.13847525  0.67092752  0.34659577     0.19400
C689        C  0.36209891  0.79701135  0.33177912    -0.06400
C690        C  0.36383663  0.83667759  0.33227771    -0.17600
C691        C  0.39565185  0.85580087  0.34556017     0.10800
C692        C  0.42665194  0.83519190  0.35994713    -0.06400
C693        C  0.42438471  0.79573119  0.36148316    -0.17600
C694        C  0.39241070  0.77648889  0.34821894     0.10800
S695        S  0.39608118  0.90629087  0.34007358    -0.32600
S696        S  0.39304761  0.72596127  0.35198901    -0.32600
H697        H  0.35846353  0.72470068  0.37177559     0.28800
H698        H  0.43345695  0.90777077  0.32627154     0.28800
H699        H  0.34086120  0.85324230  0.32050946     0.19400
H700        H  0.44788754  0.77968613  0.37297933     0.19400
C701        C  0.30607915  0.81414796  0.13566145    -0.06400
C702        C  0.31951232  0.78934631  0.10775517    -0.17600
C703        C  0.34040077  0.80196516  0.07681163     0.10800
C704        C  0.34753682  0.84079072  0.07216232    -0.06400
C705        C  0.33514288  0.86578612  0.10038092    -0.17600
C706        C  0.31438870  0.85302174  0.13183511     0.10800
S707        S  0.35886289  0.76647767  0.04546694    -0.32600
S708        S  0.29788073  0.88801545  0.16476658    -0.32600
H709        H  0.26165121  0.87207240  0.16884995     0.28800
H710        H  0.39270876  0.78573205  0.03741964     0.28800
H711        H  0.31478958  0.75934053  0.11055512     0.19400
H712        H  0.34024660  0.89568052  0.09712516     0.19400
C713        C  0.06518612  0.65644945  0.15052630    -0.06400
C714        C  0.09402126  0.66992502  0.12691429    -0.17600
C715        C  0.12520272  0.68935581  0.14173364     0.10800
C716        C  0.12847638  0.69424601  0.18129039    -0.06400
C717        C  0.09975066  0.67997999  0.20472277    -0.17600
C718        C  0.06845494  0.66120706  0.18992225     0.10800
S719        S  0.15800248  0.70957476  0.10848067    -0.32600
S720        S  0.03388626  0.64350858  0.22302090    -0.32600
H721        H  0.02328195  0.61216463  0.20125877     0.28800
H722        H  0.16225801  0.74348900  0.12851526     0.28800
H723        H  0.09112542  0.66726759  0.09659291     0.19400
H724        H  0.10195011  0.68276772  0.23508800     0.19400
C725        C  0.32450636  0.62963469  0.20458451    -0.06400
C726        C  0.34364241  0.63411402  0.17018571    -0.17600
C727        C  0.36138857  0.60374193  0.15218675     0.10800
C728        C  0.35887411  0.56716529  0.16818665    -0.06400
C729        C  0.34128390  0.56347266  0.20382348    -0.17600
C730        C  0.32384392  0.59393362  0.22182141     0.10800
S731        S  0.38600122  0.61423648  0.10894405    -0.32600
S732        S  0.29867589  0.58460133  0.26514507    -0.32600
H733        H  0.26728535  0.60756794  0.25653462     0.28800
H734        H  0.42023379  0.59807249  0.12152045     0.28800
H735        H  0.34468142  0.66169428  0.15709566     0.19400
H736        H  0.33948408  0.53620612  0.21738553     0.19400
C737        C  0.18015797  0.86429803  0.30840611    -0.06400
C738        C  0.19854614  0.89870202  0.30168830    -0.17600
C739        C  0.18626451  0.93236776  0.31814388     0.10800
C740        C  0.15371301  0.93244340  0.34163999    -0.06400
C741        C  0.13538221  0.89810466  0.34877789    -0.17600
C742        C  0.14840313  0.86419161  0.33307349     0.10800
S743        S  0.21466387  0.97403250  0.31040258    -0.32600
S744        S  0.12364239  0.82209915  0.34687277    -0.32600
H745        H  0.15681927  0.80365068  0.35908964     0.28800
H746        H  0.23380172  0.96112410  0.27803826     0.28800
H747        H  0.22344819  0.89931863  0.28386997     0.19400
H748        H  0.11059032  0.89755791  0.36682894     0.19400
C749        C  0.80105126  0.67878631  0.36611945    -0.06400
C750        C  0.83871579  0.66575300  0.36466363    -0.17600
C751        C  0.85670061  0.65047379  0.39645393     0.10800
C752        C  0.83646101  0.64725658  0.43081060    -0.06400
C753        C  0.79806394  0.65824919  0.43146561    -0.17600
C754        C  0.78042411  0.67436052  0.40000742     0.10800
S755        S  0.90604793  0.63821249  0.39156546    -0.32600
S756        S  0.73257707  0.69128184  0.40619200    -0.32600
H757        H  0.73955763  0.72660847  0.38963089     0.28800
H758        H  0.91725621  0.65804572  0.42402372     0.28800
H759        H  0.85484169  0.66879482  0.33880627     0.19400
H760        H  0.78181907  0.65565664  0.45729215     0.19400
C761        C  0.66979367  0.64290157  0.19950955    -0.06400
C762        C  0.65827523  0.61326417  0.22313669    -0.17600
C763        C  0.64142271  0.58075022  0.20843867     0.10800
C764        C  0.63750409  0.57659470  0.16891346    -0.06400
C765        C  0.64657668  0.60716847  0.14557603    -0.17600
C766        C  0.66156329  0.64043425  0.16039244     0.10800
S767        S  0.62435083  0.54635053  0.24174640    -0.32600
S768        S  0.66829963  0.67883464  0.12775961    -0.32600
H769        H  0.65598035  0.70672033  0.15321681     0.28800
H770        H  0.59280228  0.53574136  0.21996954     0.28800
H771        H  0.66280228  0.61513207  0.25330553     0.19400
H772        H  0.64241007  0.60506365  0.11536309     0.19400
C773        C  0.66919458  0.86528226  0.07062684    -0.06400
C774        C  0.64562172  0.85521552  0.10086669    -0.17600
C775        C  0.66034506  0.83716048  0.13272500     0.10800
C776        C  0.69952955  0.82919218  0.13460017    -0.06400
C777        C  0.72335351  0.84044148  0.10517901    -0.17600
C778        C  0.70878161  0.85921081  0.07367869     0.10800
S779        S  0.62747245  0.82354349  0.16928495    -0.32600
S780        S  0.74238485  0.87612485  0.03930383    -0.32600
H781        H  0.72125668  0.90833234  0.02943485     0.28800
H782        H  0.64627208  0.79009178  0.17952499     0.28800
H783        H  0.61529059  0.85974957  0.09894163     0.19400
H784        H  0.75359262  0.83529316  0.10715818     0.19400
C785        C  0.63105736  0.80464790  0.32509798    -0.06400
C786        C  0.62915843  0.84394182  0.33010896    -0.17600
C787        C  0.59656754  0.86163894  0.34388104     0.10800
C788        C  0.56512825  0.83963563  0.35484797    -0.06400
C789        C  0.56761055  0.80022599  0.35157565    -0.17600
C790        C  0.59970608  0.78260510  0.33634483     0.10800
S791        S  0.59623613  0.91240541  0.34364461    -0.32600
S792        S  0.59749921  0.73236581  0.32989951    -0.32600
H793        H  0.60871825  0.73386127  0.29181341     0.28800
H794        H  0.55987998  0.91535825  0.32756305     0.28800
H795        H  0.65281675  0.86144507  0.32171039     0.19400
H796        H  0.54379271  0.78291149  0.35991257     0.19400
C797        C  0.81799603  0.87423979  0.30997256    -0.06400
C798        C  0.79346533  0.90416025  0.31950324    -0.17600
C799        C  0.80628862  0.93596953  0.33872604     0.10800
C800        C  0.84500197  0.93906981  0.34820447    -0.06400
C801        C  0.86963579  0.90928669  0.33935032    -0.17600
C802        C  0.85666574  0.87698407  0.32065654     0.10800
S803        S  0.77141980  0.97113083  0.35123555    -0.32600
S804        S  0.89140058  0.84141934  0.30982319    -0.32600
H805        H  0.87471971  0.81499346  0.33429146     0.28800
H806        H  0.78900350  0.98178765  0.38518302     0.28800
H807        H  0.76359404  0.90264137  0.31261597     0.19400
H808        H  0.89949381  0.91162964  0.34611236     0.19400
C809        C  0.92800396  0.66630536  0.14327778    -0.06400
C810        C  0.93091311  0.70430350  0.15419089    -0.17600
C811        C  0.90020044  0.72380730  0.16963901     0.10800
C812        C  0.86545765  0.70508959  0.17475636    -0.06400
C813        C  0.86171832  0.66780701  0.16214808    -0.17600
C814        C  0.89262842  0.64803136  0.14705773     0.10800
S815        S  0.90700813  0.77266664  0.18159968    -0.32600
S816        S  0.88559610  0.59898993  0.13628826    -0.32600
H817        H  0.91925409  0.58697507  0.15393498     0.28800
H818        H  0.86949001  0.78387575  0.17404917     0.28800
H819        H  0.95750818  0.71910459  0.15077296     0.19400
H820        H  0.83508049  0.65321747  0.16618042     0.19400
C821        C  0.33901709  0.36843548  0.79180168    -0.06400
C822        C  0.35970995  0.36471247  0.82539912    -0.17600
C823        C  0.37572324  0.39606243  0.84334845     0.10800
C824        C  0.36998707  0.43268429  0.82807956    -0.06400
C825        C  0.35140265  0.43560091  0.79294812    -0.17600
C826        C  0.33656038  0.40415941  0.77458075     0.10800
S827        S  0.40251202  0.38672065  0.88558247    -0.32600
S828        S  0.31512492  0.41157244  0.72895128    -0.32600
H829        H  0.32570446  0.37628731  0.71423021     0.28800
H830        H  0.43431886  0.40704704  0.87304680     0.28800
H831        H  0.36247964  0.33724457  0.83846888     0.19400
H832        H  0.34781493  0.46274705  0.77947061     0.19400
C833        C  0.37062759  0.20039341  0.66722434    -0.06400
C834        C  0.39710069  0.22416197  0.65006813    -0.17600
C835        C  0.42912210  0.20946345  0.63195908     0.10800
C836        C  0.43539734  0.17010149  0.63187605    -0.06400
C837        C  0.40805341  0.14631919  0.64786985    -0.17600
C838        C  0.37573628  0.16099750  0.66544836     0.10800
S839        S  0.46063064  0.24237168  0.60929089    -0.32600
S840        S  0.34378325  0.12804365  0.68753154    -0.32600
H841        H  0.31066817  0.14973413  0.68379073     0.28800
H842        H  0.47192492  0.21776523  0.58026540     0.28800
H843        H  0.39294397  0.25439495  0.65107614     0.19400
H844        H  0.41266759  0.11613581  0.64815227     0.19400
C845        C  0.15203664  0.07225898  0.65649791    -0.06400
C846        C  0.14476112  0.08052416  0.69450753    -0.17600
C847        C  0.15763849  0.11388673  0.71120160     0.10800
C848        C  0.18060372  0.13907739  0.69015926    -0.06400
C849        C  0.18652263  0.13116934  0.65152921    -0.17600
C850        C  0.17247426  0.09838948  0.63459463     0.10800
S851        S  0.14259197  0.12260493  0.75897095    -0.32600
S852        S  0.18314671  0.09080409  0.58539636    -0.32600
H853        H  0.18784102  0.05158201  0.58818951     0.28800
H854        H  0.13057049  0.15965002  0.75121553     0.28800
H855        H  0.12817527  0.06102983  0.71123785     0.19400
H856        H  0.20326906  0.15008028  0.63433844     0.19400
C857        C  0.07792053  0.33921628  0.85798362    -0.06400
C858        C  0.08528169  0.30064662  0.86295486    -0.17600
C859        C  0.11816411  0.28368566  0.84835546     0.10800
C860        C  0.14379726  0.30532374  0.82644795    -0.06400
C861        C  0.13693991  0.34437685  0.82319952    -0.17600
C862        C  0.10454892  0.36133964  0.83839374     0.10800
S863        S  0.12567073  0.23475789  0.85952153    -0.32600
S864        S  0.09758177  0.41082277  0.82916222    -0.32600
H865        H  0.05885882  0.40757390  0.82033846     0.28800
H866        H  0.16384724  0.23998714  0.86969057     0.28800
H867        H  0.06528409  0.28358903  0.87862087     0.19400
H868        H  0.15610227  0.36197944  0.80715956     0.19400
C869        C  0.16383015  0.35661120  0.56693431    -0.06400
C870        C  0.14566765  0.35785359  0.60224372    -0.17600
C871        C  0.16350846  0.34421825  0.63485608     0.10800
C872        C  0.20052164  0.32900551  0.63238372    -0.06400
C873        C  0.21939069  0.32958476  0.59763790    -0.17600
C874        C  0.20204933  0.34410633  0.56530433     0.10800
S875        S  0.13649296  0.34462714  0.67807618    -0.32600
S876        S  0.23111737  0.34714532  0.52352497    -0.32600
H877        H  0.21637844  0.38222330  0.51209805     0.28800
H878        H  0.14768151  0.30837227  0.68966397     0.28800
H879        H  0.11666674  0.36778842  0.60426028     0.19400
H880        H  0.24815695  0.31890903  0.59575011     0.19400
C881        C  0.30322514  0.17484409  0.86177661    -0.06400
C882        C  0.34073834  0.16129182  0.86222845    -0.17600
C883        C  0.35648050  0.14472176  0.89454599     0.10800
C884        C  0.33394290  0.14034092  0.92735382    -0.06400
C885        C  0.29583842  0.15222711  0.92606617    -0.17600
C886        C  0.28057621  0.16995578  0.89428266     0.10800
S887        S  0.40603094  0.13245442  0.89243790    -0.32600
S888        S  0.23304285  0.18828296  0.89847152    -0.32600
H889        H  0.24194772  0.22365921  0.88297008     0.28800
H890        H  0.41511867  0.15210384  0.92565992     0.28800
H891        H  0.35848579  0.16483058  0.83751412     0.19400
H892        H  0.27791052  0.14908387  0.95069560     0.19400
C893        C  0.79371734  0.33302482  0.63721615    -0.06400
C894        C  0.77075354  0.33756964  0.60531834    -0.17600
C895        C  0.78494912  0.35407387  0.57220685     0.10800
C896        C  0.82359177  0.36510673  0.57058105    -0.06400
C897        C  0.84541601  0.36313681  0.60366681    -0.17600
C898        C  0.83073926  0.34808409  0.63694912     0.10800
S899        S  0.75283425  0.36159221  0.53316977    -0.32600
S900        S  0.86062985  0.34944172  0.67825321    -0.32600
H901        H  0.83069581  0.35419160  0.70410134     0.28800
H902        H  0.71958301  0.34931202  0.55123337     0.28800
H903        H  0.74201225  0.32700503  0.60598255     0.19400
H904        H  0.87450735  0.37279862  0.60364121     0.19400
C905        C  0.68111782  0.37104164  0.80747432    -0.06400
C906        C  0.68918218  0.37956049  0.84554916    -0.17600
C907        C  0.67430264  0.41150765  0.86325112     0.10800
C908        C  0.65121429  0.43648841  0.84268164    -0.06400
C909        C  0.64288677  0.42839199  0.80487541    -0.17600
C910        C  0.65680038  0.39583238  0.78728293     0.10800
S911        S  0.68846311  0.42078144  0.91112796    -0.32600
S912        S  0.64250433  0.38837731  0.73912578    -0.32600
H913        H  0.62713032  0.35266142  0.74679836     0.28800
H914        H  0.65112951  0.42045875  0.92500669     0.28800
H915        H  0.70763015  0.36141712  0.86193159     0.19400
H916        H  0.62505267  0.44755460  0.78893603     0.19400
C917        C  0.82384075  0.13452225  0.69991292    -0.06400
C918        C  0.83763184  0.13698924  0.66279377    -0.17600
C919        C  0.85171297  0.10526689  0.64377619     0.10800
C920        C  0.85342515  0.07011665  0.66264487    -0.06400
C921        C  0.84090753  0.06835570  0.70040652    -0.17600
C922        C  0.82640637  0.09987628  0.71911217     0.10800
S923        S  0.86414340  0.11133935  0.59485790    -0.32600
S924        S  0.81260900  0.09415918  0.76779219    -0.32600
H925        H  0.82302887  0.13065333  0.77904213     0.28800
H926        H  0.84368455  0.07960492  0.58283183     0.28800
H927        H  0.83549688  0.16347039  0.64771232     0.19400
H928        H  0.84252413  0.04214922  0.71589324     0.19400
C929        C  0.63253675  0.20104054  0.68070588    -0.06400
C930        C  0.61985218  0.21707539  0.64667278    -0.17600
C931        C  0.59016225  0.20080767  0.62608033     0.10800
C932        C  0.57286880  0.16759966  0.63950220    -0.06400
C933        C  0.58521990  0.15172906  0.67344678    -0.17600
C934        C  0.61403715  0.16843132  0.69457771     0.10800
S935        S  0.57542680  0.22380368  0.58312231    -0.32600
S936        S  0.62346601  0.14832013  0.74039283    -0.32600
H937        H  0.62793510  0.18324387  0.75856725     0.28800
H938        H  0.56242025  0.19116370  0.56501664     0.28800
H939        H  0.63347027  0.24211488  0.63574229     0.19400
H940        H  0.57084833  0.12719392  0.68462671     0.19400
C941        C  0.68972554  0.18536753  0.86787433    -0.06400
C942        C  0.68991718  0.14628223  0.87416357    -0.17600
C943        C  0.67125605  0.13056199  0.90545433     0.10800
C944        C  0.65169765  0.15437951  0.93084414    -0.06400
C945        C  0.65020363  0.19311515  0.92361414    -0.17600
C946        C  0.66799773  0.20867681  0.89208552     0.10800
S947        S  0.67487900  0.08034827  0.91222418    -0.32600
S948        S  0.66024427  0.25821710  0.88348568    -0.32600
H949        H  0.65799811  0.25478148  0.84399242     0.28800
H950        H  0.67516179  0.08111031  0.95186842     0.28800
H951        H  0.70579690  0.12803835  0.85539416     0.19400
H952        H  0.63462663  0.21142807  0.94260210     0.19400
C953        C  0.87529326  0.29996385  0.81987684    -0.06400
C954        C  0.87139659  0.32345790  0.85161139    -0.17600
C955        C  0.90279888  0.34035042  0.86881166     0.10800
C956        C  0.93949894  0.33481261  0.85352174    -0.06400
C957        C  0.94339867  0.31093099  0.82210116    -0.17600
C958        C  0.91217342  0.29322883  0.80538839     0.10800
S959        S  0.89387735  0.36711342  0.91103762    -0.32600
S960        S  0.92070191  0.26138245  0.76638438    -0.32600
H961        H  0.96036627  0.26490823  0.76484566     0.28800
H962        H  0.92366368  0.35001020  0.93110423     0.28800
H963        H  0.84352326  0.32877222  0.86334939     0.19400
H964        H  0.97125385  0.30623797  0.81020285     0.19400
C965        C  0.20555606  0.67581567  0.63183084    -0.06400
C966        C  0.17930304  0.64684306  0.63792617    -0.17600
C967        C  0.16247943  0.62762588  0.60768148     0.10800
C968        C  0.17033735  0.63895915  0.57008345    -0.06400
C969        C  0.19794193  0.66712341  0.56442582    -0.17600
C970        C  0.21538312  0.68553920  0.59459548     0.10800
S971        S  0.13290932  0.58805415  0.61933211    -0.32600
S972        S  0.24852346  0.72254620  0.58355239    -0.32600
H973        H  0.23844255  0.74623925  0.61371575     0.28800
H974        H  0.14885275  0.56469107  0.59144744     0.28800
H975        H  0.17230372  0.63871648  0.66657344     0.19400
H976        H  0.20525018  0.67617352  0.53616969     0.19400
C977        C  0.36963607  0.80736123  0.68065419    -0.06400
C978        C  0.37287855  0.80837944  0.64120305    -0.17600
C979        C  0.40330412  0.82689751  0.62381552     0.10800
C980        C  0.43054148  0.84520953  0.64642369    -0.06400
C981        C  0.42703794  0.84429986  0.68574090    -0.17600
C982        C  0.39719372  0.82541599  0.70307218     0.10800
S983        S  0.40632710  0.82529678  0.57303825    -0.32600
S984        S  0.39671823  0.82419192  0.75399922    -0.32600
H985        H  0.38125868  0.78786681  0.75706318     0.28800
H986        H  0.44610563  0.82427563  0.57087242     0.28800
H987        H  0.35161937  0.79477792  0.62392709     0.19400
H988        H  0.44843636  0.85754711  0.70315902     0.19400
C989        C  0.13327813  0.69531536  0.81638374    -0.06400
C990        C  0.10566510  0.68249883  0.79085921    -0.17600
C991        C  0.07348202  0.66327126  0.80305818     0.10800
C992        C  0.06802110  0.65668880  0.84191821    -0.06400
C993        C  0.09570580  0.66871634  0.86760189    -0.17600
C994        C  0.12787062  0.68843945  0.85541653     0.10800
S995        S  0.04106423  0.64683748  0.76736423    -0.32600
S996        S  0.15932050  0.70600168  0.89130167    -0.32600
H997        H  0.16478583  0.74109678  0.87370443     0.28800
H998        H  0.03025543  0.61403846  0.78680931     0.28800
H999        H  0.10951356  0.68664444  0.76080787     0.19400
H1000       H  0.09133370  0.66434020  0.89755588     0.19400
C1001       C  0.33216271  0.63461788  0.79483576    -0.06400
C1002       C  0.35015174  0.63793953  0.82996422    -0.17600
C1003       C  0.36789558  0.60713445  0.84729766     0.10800
C1004       C  0.36666905  0.57118496  0.82977410    -0.06400
C1005       C  0.35041125  0.56874850  0.79343399    -0.17600
C1006       C  0.33296209  0.59968118  0.77612270     0.10800
S1007       S  0.39082529  0.61631418  0.89172656    -0.32600
S1008       S  0.30951656  0.59181253  0.73164529    -0.32600
H1009       H  0.27703874  0.61310651  0.74057572     0.28800
H1010       H  0.42551893  0.60039913  0.88010116     0.28800
H1011       H  0.35015984  0.66492815  0.84423807     0.19400
H1012       H  0.34957460  0.54204690  0.77875039     0.19400
C1013       C  0.30888503  0.81618804  0.87112182    -0.06400
C1014       C  0.32973423  0.79138632  0.89411021    -0.17600
C1015       C  0.35097701  0.80436068  0.92469124     0.10800
C1016       C  0.35035477  0.84293415  0.93402543    -0.06400
C1017       C  0.33082023  0.86812024  0.91044815    -0.17600
C1018       C  0.31015054  0.85525763  0.87916466     0.10800
S1019       S  0.37995931  0.77049946  0.94935847    -0.32600
S1020       S  0.28464537  0.88994748  0.85200770    -0.32600
H1021       H  0.25227165  0.86750342  0.84692981     0.28800
H1022       H  0.40763731  0.79625313  0.96135369     0.28800
H1023       H  0.33056835  0.76161142  0.88747182     0.19400
H1024       H  0.33029542  0.89782780  0.91738884     0.19400
C1025       C  0.14758021  0.93439865  0.66708924    -0.06400
C1026       C  0.14848046  0.90059118  0.64639350    -0.17600
C1027       C  0.16417072  0.86752751  0.66153887     0.10800
C1028       C  0.17905967  0.86777401  0.69857980    -0.06400
C1029       C  0.17708380  0.90106074  0.71967089    -0.17600
C1030       C  0.16085853  0.93387261  0.70487984     0.10800
S1031       S  0.16669066  0.82687609  0.63115561    -0.32600
S1032       S  0.15666843  0.97328622  0.73664613    -0.32600
H1033       H  0.12021158  0.98358872  0.72416299     0.28800
H1034       H  0.20339639  0.81601173  0.64231232     0.28800
H1035       H  0.13847563  0.90021209  0.61750580     0.19400
H1036       H  0.18781739  0.90135518  0.74832306     0.19400
C1037       C  0.79754843  0.67821986  0.63410741    -0.06400
C1038       C  0.83593724  0.66751687  0.63560483    -0.17600
C1039       C  0.85534949  0.65507415  0.60357653     0.10800
C1040       C  0.83577531  0.65170736  0.56892662    -0.06400
C1041       C  0.79701875  0.66122889  0.56773242    -0.17600
C1042       C  0.77778519  0.67424137  0.59971120     0.10800
S1043       S  0.90562306  0.64722374  0.60858941    -0.32600
S1044       S  0.72896722  0.68791795  0.59390766    -0.32600
H1045       H  0.71601247  0.66196504  0.62097576     0.28800
H1046       H  0.91514333  0.66651125  0.57521508     0.28800
H1047       H  0.85161594  0.67062720  0.66170387     0.19400
H1048       H  0.78139578  0.65869648  0.54155231     0.19400
C1049       C  0.66865452  0.64073548  0.80043819    -0.06400
C1050       C  0.66346977  0.60846588  0.77827628    -0.17600
C1051       C  0.64870347  0.57533071  0.79374046     0.10800
C1052       C  0.63991151  0.57376343  0.83275666    -0.06400
C1053       C  0.64245074  0.60690569  0.85414660    -0.17600
C1054       C  0.65620282  0.64039837  0.83840496     0.10800
S1055       S  0.64118220  0.53655965  0.76182327    -0.32600
S1056       S  0.65715657  0.68248185  0.86713081    -0.32600
H1057       H  0.63794115  0.66760767  0.89853793     0.28800
H1058       H  0.60737165  0.52466353  0.77916174     0.28800
H1059       H  0.67183635  0.60870838  0.74885207     0.19400
H1060       H  0.63488118  0.60628943  0.88373244     0.19400
C1061       C  0.63433430  0.80669918  0.67049362    -0.06400
C1062       C  0.60271108  0.78399216  0.66342342    -0.17600
C1063       C  0.56955788  0.79903204  0.64759467     0.10800
C1064       C  0.56780066  0.83799905  0.63898145    -0.06400
C1065       C  0.60031418  0.86005058  0.64369186    -0.17600
C1066       C  0.63356789  0.84483263  0.65875759     0.10800
S1067       S  0.53037702  0.76773148  0.63785376    -0.32600
S1068       S  0.67400914  0.87564663  0.66169139    -0.32600
H1069       H  0.70078974  0.84749893  0.65298567     0.28800
H1070       H  0.54563067  0.73536282  0.65505570     0.28800
H1071       H  0.60357009  0.75460090  0.67147411     0.19400
H1072       H  0.59965688  0.88967430  0.63637787     0.19400
C1073       C  0.69793106  0.82771019  0.86794247    -0.06400
C1074       C  0.65907086  0.83604929  0.86872223    -0.17600
C1075       C  0.64188065  0.85071097  0.90114995     0.10800
C1076       C  0.66435556  0.85913092  0.93309133    -0.06400
C1077       C  0.70356628  0.85168628  0.93162468    -0.17600
C1078       C  0.72047046  0.83597184  0.89961078     0.10800
S1079       S  0.59093644  0.85439119  0.90098781    -0.32600
S1080       S  0.77088181  0.82730256  0.90084474    -0.32600
H1081       H  0.77717211  0.83266708  0.86203527     0.28800
H1082       H  0.58679668  0.83761163  0.93672230     0.28800
H1083       H  0.64159482  0.82905671  0.84459387     0.19400
H1084       H  0.72134762  0.85812059  0.95565083     0.19400
C1085       C  0.82194951  0.86940968  0.69711689    -0.06400
C1086       C  0.83339866  0.89933259  0.71994284    -0.17600
C1087       C  0.85187136  0.93048491  0.70452951     0.10800
C1088       C  0.85757637  0.93274452  0.66499282    -0.06400
C1089       C  0.84737193  0.90201188  0.64236031    -0.17600
C1090       C  0.82942353  0.87050897  0.65796609     0.10800
S1091       S  0.86870481  0.96556890  0.73716514    -0.32600
S1092       S  0.81474254  0.83366203  0.62620154    -0.32600
H1093       H  0.78113192  0.82458294  0.64548278     0.28800
H1094       H  0.90073136  0.97547257  0.71570582     0.28800
H1095       H  0.82847920  0.89810962  0.75011389     0.19400
H1096       H  0.85151401  0.90336965  0.61209415     0.19400
C1097       C  0.86402677  0.70142060  0.82347842    -0.06400
C1098       C  0.86122826  0.66447490  0.83721951    -0.17600
C1099       C  0.89353373  0.64433812  0.84857055     0.10800
C1100       C  0.92952284  0.66200403  0.84759569    -0.06400
C1101       C  0.93168030  0.69962718  0.83536860    -0.17600
C1102       C  0.89958236  0.71939589  0.82353475     0.10800
S1103       S  0.88699210  0.59548322  0.86060829    -0.32600
S1104       S  0.90586334  0.76769200  0.80905122    -0.32600
H1105       H  0.86981710  0.78001474  0.82086362     0.28800
H1106       H  0.91829333  0.58287951  0.83939875     0.28800
H1107       H  0.83408062  0.65028585  0.83662191     0.19400
H1108       H  0.95868284  0.71406370  0.83509725     0.19400
loop_ 
_geom_bond_atom_site_label_1 
_geom_bond_atom_site_label_2 
_geom_bond_distance 
_geom_bond_site_symmetry_2 
_ccdc_geom_bond_type 
N1            C6   1.353       .  A
N1            C5   1.353       .  A
N1           H33   1.036       .  S
N2            C9   1.352   1_545  A
N2           C10   1.352       .  A
N3            C8   1.355       .  A
N3            C7   1.354       .  A
N3           H34   1.036       .  S
N4           C11   1.352   1_545  A
N4           C12   1.353       .  A
C5           C13   1.388       .  A
C5           C21   1.415       .  A
C6           C22   1.416       .  A
C6           C14   1.388       .  A
C7           C15   1.387       .  A
C7           C24   1.416       .  A
C8           C23   1.419       .  A
C8           C16   1.388       .  A
C9           C21   1.415       .  A
C9           C17   1.386       .  A
C10          C24   1.415       .  A
C10          C18   1.386       .  A
C11          C19   1.386       .  A
C11          C22   1.416       .  A
C12          C20   1.387       .  A
C12          C23   1.417       .  A
C13          C14   1.371       .  A
C13          H25   1.082       .  S
C14          H26   1.082       .  S
C15          C16   1.371       .  A
C15          H27   1.081       .  S
C16          H28   1.082       .  S
C17          C18   1.376   1_565  A
C17          H29   1.082       .  S
C18          H30   1.082       .  S
C19          C20   1.377   1_565  A
C19          H31   1.082       .  S
C20          H32   1.082       .  S
C21         C519   1.478       .  S
C22         C459   1.478       .  S
C23         C411   1.483       .  S
C24         C493   1.480       .  S
N35          C40   1.353       .  A
N35          C39   1.353       .  A
N35          H67   1.037       .  S
N36          C43   1.353       .  A
N36          C44   1.353   1_655  A
N37          C42   1.355       .  A
N37          C41   1.356       .  A
N37          H68   1.035       .  S
N38          C45   1.353       .  A
N38          C46   1.352   1_655  A
C39          C47   1.389       .  A
C39          C55   1.416       .  A
C40          C56   1.413       .  A
C40          C48   1.387       .  A
C41          C49   1.388       .  A
C41          C58   1.421       .  A
C42          C57   1.419       .  A
C42          C50   1.387       .  A
C43          C55   1.417       .  A
C43          C51   1.386       .  A
C44          C58   1.418       .  A
C44          C52   1.387       .  A
C45          C53   1.386       .  A
C45          C56   1.415       .  A
C46          C54   1.387       .  A
C46          C57   1.417       .  A
C47          C48   1.372       .  A
C47          H59   1.081       .  S
C48          H60   1.082       .  S
C49          C50   1.373       .  A
C49          H61   1.081       .  S
C50          H62   1.081       .  S
C51          C52   1.377   1_655  A
C51          H63   1.082       .  S
C52          H64   1.082       .  S
C53          C54   1.377   1_655  A
C53          H65   1.082       .  S
C54          H66   1.082       .  S
C55         C435   1.479       .  S
C56         C529   1.479       .  S
C57         C465   1.482       .  S
C58         C475   1.487       .  S
N69          C74   1.355       .  A
N69          C73   1.354       .  A
N69         H101   1.034       .  S
N70          C77   1.353       .  A
N70          C78   1.354   1_556  A
N71          C76   1.353       .  A
N71          C75   1.355       .  A
N71         H102   1.034       .  S
N72          C79   1.353   1_554  A
N72          C80   1.352       .  A
C73          C81   1.389       .  A
C73          C89   1.420       .  A
C74          C90   1.418       .  A
C74          C82   1.388       .  A
C75          C83   1.388       .  A
C75          C92   1.419       .  A
C76          C91   1.417       .  A
C76          C84   1.388       .  A
C77          C89   1.419       .  A
C77          C85   1.386       .  A
C78          C92   1.419       .  A
C78          C86   1.386       .  A
C79          C87   1.386       .  A
C79          C90   1.416       .  A
C80          C88   1.387       .  A
C80          C91   1.417       .  A
C81          C82   1.370       .  A
C81          H93   1.082       .  S
C82          H94   1.082       .  S
C83          C84   1.370       .  A
C83          H95   1.082       .  S
C84          H96   1.082       .  S
C85          C86   1.378   1_556  A
C85          H97   1.082       .  S
C86          H98   1.082       .  S
C87          C88   1.376   1_556  A
C87          H99   1.082       .  S
C88         H100   1.082       .  S
C89         C499   1.481       .  S
C90         C523   1.482       .  S
C91         C427   1.477       .  S
C92         C441   1.486       .  S
N103        C108   1.355   1_556  A
N103        C107   1.353       .  A
N103        H135   1.036   1_655  S
N104        C111   1.351       .  A
N104        C112   1.353       .  A
N105        C110   1.352   1_456  A
N105        C109   1.354   1_455  A
N105        H136   1.035       .  S
N106        C113   1.352   1_655  A
N106        C114   1.351   1_655  A
C107        C115   1.389       .  A
C107        C123   1.417       .  A
C108        C124   1.415       .  A
C108        C116   1.386       .  A
C109        C117   1.388       .  A
C109        C126   1.416   1_655  A
C110        C125   1.414       .  A
C110        C118   1.387       .  A
C111        C123   1.417   1_455  A
C111        C119   1.388       .  A
C112        C126   1.415       .  A
C112        C120   1.385       .  A
C113        C121   1.387       .  A
C113        C124   1.415   1_455  A
C114        C122   1.386       .  A
C114        C125   1.413   1_455  A
C115        C116   1.374   1_556  A
C115        H127   1.082       .  S
C116        H128   1.082       .  S
C117        C118   1.371   1_556  A
C117        H129   1.081       .  S
C118        H130   1.082       .  S
C119        C120   1.376       .  A
C119        H131   1.082       .  S
C120        H132   1.082       .  S
C121        C122   1.374       .  A
C121        H133   1.082       .  S
C122        H134   1.082       .  S
C123        C511   1.475       .  S
C124        C445   1.481       .  S
C125        C399   1.473       .  S
C126        C481   1.482       .  S
N137        C142   1.353   1_545  A
N137        C141   1.355       .  A
N137        H169   1.035   1_554  S
N138        C145   1.354   1_554  A
N138        C146   1.353   1_554  A
N139        C144   1.355       .  A
N139        C143   1.353   1_565  A
N139        H170   1.034   1_554  S
N140        C147   1.353   1_554  A
N140        C148   1.354       .  A
C141        C149   1.387       .  A
C141        C157   1.416       .  A
C142        C158   1.417       .  A
C142        C150   1.388       .  A
C143        C151   1.388       .  A
C143        C160   1.418       .  A
C144        C159   1.417       .  A
C144        C152   1.387       .  A
C145        C157   1.417   1_556  A
C145        C153   1.386       .  A
C146        C160   1.418   1_556  A
C146        C154   1.387       .  A
C147        C155   1.387       .  A
C147        C158   1.417   1_556  A
C148        C156   1.386   1_554  A
C148        C159   1.418       .  A
C149        C150   1.373   1_545  A
C149        H161   1.082       .  S
C150        H162   1.082       .  S
C151        C152   1.375   1_545  A
C151        H163   1.082       .  S
C152        H164   1.082       .  S
C153        C154   1.375       .  A
C153        H165   1.082       .  S
C154        H166   1.082       .  S
C155        C156   1.375       .  A
C155        H167   1.082       .  S
C156        H168   1.082       .  S
C157        C423   1.483       .  S
C158        C469   1.478       .  S
C159        C451   1.484       .  S
C160        C405   1.478       .  S
O171        C187   1.275       .  A
O171       Zn177   2.029       .  S
C172       C1073   1.468       .  S
C172        O188   1.275       .  A
C172        O185   1.272       .  A
O173        C186   1.278       .  A
O173       Cd180   2.087       .  S
O174        C192   1.271       .  A
O174       Cd183   2.043       .  S
O175        C189   1.272       .  A
O175       Cd179   2.058       .  S
O176        C187   1.272       .  A
O176       Cd179   2.049       .  S
Zn177       O188   2.027       .  S
Zn177       O190   1.997       .  S
Zn177       O182   1.939       .  S
O178        C189   1.273       .  A
O178       Cd183   2.068       .  S
Cd179       O181   2.037       .  S
Cd179       O182   1.982       .  S
Cd180       O184   2.087       .  S
Cd180       O193   2.083       .  S
Cd180       O182   2.014       .  S
O181        C191   1.271       .  A
O182       Cd183   1.991       .  S
Cd183       O185   2.056       .  S
O184        C191   1.276       .  A
C186       C1049   1.482       .  S
C186        O190   1.272       .  A
C187       C1097   1.474       .  S
C189       C1085   1.468       .  S
C191       C1037   1.482       .  S
C192       C1061   1.479       .  S
C192        O193   1.277       .  A
O194        C210   1.275       .  A
O194       Zn200   2.011       .  S
C195       C1028   1.480       .  S
C195        O211   1.276       .  A
C195        O208   1.274       .  A
O196        C209   1.277       .  A
O196       Cd203   2.090       .  S
O197        C215   1.270       .  A
O197       Cd206   2.039       .  S
O198        C212   1.276       .  A
O198       Cd202   2.075       .  S
O199        C210   1.275       .  A
O199       Cd202   2.078       .  S
Zn200       O211   2.036       .  S
Zn200       O213   2.013       .  S
Zn200       O205   1.940       .  S
O201        C212   1.274       .  A
O201       Cd206   2.075       .  S
Cd202       O204   2.047       .  S
Cd202       O205   1.997       .  S
Cd203       O207   2.095       .  S
Cd203       O216   2.090       .  S
Cd203       O205   2.018       .  S
O204        C214   1.272       .  A
O205       Cd206   1.994       .  S
Cd206       O208   2.061       .  S
O207        C214   1.279       .  A
C209        C965   1.476       .  S
C209        O213   1.272       .  A
C210        C989   1.487       .  S
C212       C1013   1.487       .  S
C214       C1001   1.477       .  S
C215        C977   1.468       .  S
C215        O216   1.277       .  A
O217        C233   1.277       .  A
O217       Zn223   2.035       .  S
C218        C941   1.482       .  S
C218        O234   1.276       .  A
C218        O231   1.275       .  A
O219        C232   1.278       .  A
O219       Cd226   2.093       .  S
O220        C238   1.273       .  A
O220       Cd229   2.053       .  S
O221        C235   1.272       .  A
O221       Cd225   2.063       .  S
O222        C233   1.273       .  A
O222       Cd225   2.064       .  S
Zn223       O234   2.035       .  S
Zn223       O236   2.003       .  S
Zn223       O228   1.942       .  S
O224        C235   1.277       .  A
O224       Cd229   2.082       .  S
Cd225       O227   2.039       .  S
Cd225       O228   1.986       .  S
Cd226       O230   2.086       .  S
Cd226       O239   2.090       .  S
Cd226       O228   2.017       .  S
O227        C237   1.271       .  A
O228       Cd229   1.992       .  S
Cd229       O231   2.062       .  S
O230        C237   1.277       .  A
C232        C929   1.486       .  S
C232        O236   1.273       .  A
C233        C917   1.479       .  S
C235        C953   1.493       .  S
C237        C893   1.476       .  S
C238        C905   1.497       .  S
C238        O239   1.276       .  A
O240        C256   1.274       .  A
O240       Zn246   2.011       .  S
C241        C833   1.466       .  S
C241        O257   1.273       .  A
C241        O254   1.274       .  A
O242        C255   1.277       .  A
O242       Cd249   2.094       .  S
O243        C261   1.274       .  A
O243       Cd252   2.060       .  S
O244        C258   1.274       .  A
O244       Cd248   2.064       .  S
O245        C256   1.274       .  A
O245       Cd248   2.070       .  S
Zn246       O257   2.016       .  S
Zn246       O259   2.014       .  S
Zn246       O251   1.943       .  S
O247        C258   1.276       .  A
O247       Cd252   2.084       .  S
Cd248       O250   2.053       .  S
Cd248       O251   1.992       .  S
Cd249       O253   2.102       .  S
Cd249       O262   2.087       .  S
Cd249       O251   2.010       .  S
O250        C260   1.274       .  A
O251       Cd252   2.002       .  S
Cd252       O254   2.066       .  S
O253        C260   1.278       .  A
C255        C848   1.501       .  S
C255        O259   1.274       .  A
C256        C872   1.476       .  S
C258        C821   1.481       .  S
C260        C860   1.499       .  S
C261        C881   1.484       .  S
C261        O262   1.278       .  A
O263        C279   1.274       .  A
O263       Zn269   2.020       .  S
C264        C812   1.473       .  S
C264        O280   1.273       .  A
C264        O277   1.276       .  A
O265        C278   1.278       .  A
O265       Cd272   2.092       .  S
O266        C284   1.275       .  A
O266       Cd275   2.062       .  S
O267        C281   1.274       .  A
O267       Cd271   2.058       .  S
O268        C279   1.271       .  A
O268       Cd271   2.048       .  S
Zn269       O280   2.007       .  S
Zn269       O282   2.002       .  S
Zn269       O274   1.938       .  S
O270        C281   1.275       .  A
O270       Cd275   2.089       .  S
Cd271       O273   2.035       .  S
Cd271       O274   1.984       .  S
Cd272       O276   2.092       .  S
Cd272       O285   2.085       .  S
Cd272       O274   2.014       .  S
O273        C283   1.271       .  A
O274       Cd275   1.998       .  S
Cd275       O277   2.076       .  S
O276        C283   1.277       .  A
C278        C761   1.490       .  S
C278        O282   1.272       .  A
C279        C776   1.464       .  S
C281        C797   1.495       .  S
C283        C785   1.486       .  S
C284        C749   1.484       .  S
C284        O285   1.278       .  A
O286        C302   1.276       .  A
O286       Zn292   2.048       .  S
C287        C737   1.495       .  S
C287        O303   1.276       .  A
C287        O300   1.274       .  A
O288        C301   1.276       .  A
O288       Cd295   2.094       .  S
O289        C307   1.274       .  A
O289       Cd298   2.058       .  S
O290        C304   1.274       .  A
O290       Cd294   2.072       .  S
O291        C302   1.275       .  A
O291       Cd294   2.061       .  S
Zn292       O303   2.012       .  S
Zn292       O305   1.991       .  S
Zn292       O297   1.935       .  S
O293        C304   1.275       .  A
O293       Cd298   2.065       .  S
Cd294       O296   2.045       .  S
Cd294       O297   1.988       .  S
Cd295       O299   2.084       .  S
Cd295       O308   2.085       .  S
Cd295       O297   2.015       .  S
O296        C306   1.272       .  A
O297       Cd298   1.996       .  S
Cd298       O300   2.073       .  S
O299        C306   1.277       .  A
C301        C689   1.494       .  S
C301        O305   1.272       .  A
C302        C701   1.494       .  S
C304        C716   1.485       .  S
C306        C725   1.473       .  S
C307        C680   1.493       .  S
C307        O308   1.276       .  A
O309        C325   1.277       .  A
O309       Zn315   2.048       .  S
C310        C644   1.477       .  S
C310        O326   1.278       .  A
C310        O323   1.272       .  A
O311        C324   1.276       .  A
O311       Cd318   2.084       .  S
O312        C330   1.272       .  A
O312       Cd321   2.045       .  S
O313        C327   1.272       .  A
O313       Cd317   2.062       .  S
O314        C325   1.275       .  A
O314       Cd317   2.057       .  S
Zn315       O326   2.044       .  S
Zn315       O328   2.008       .  S
Zn315       O320   1.947       .  S
O316        C327   1.274       .  A
O316       Cd321   2.066       .  S
Cd317       O319   2.045       .  S
Cd317       O320   1.988       .  S
Cd318       O322   2.093       .  S
Cd318       O331   2.091       .  S
Cd318       O320   2.015       .  S
O319        C329   1.272       .  A
O320       Cd321   1.990       .  S
Cd321       O323   2.058       .  S
O322        C329   1.277       .  A
C324        C653   1.491       .  S
C324        O328   1.275       .  A
C325        C632   1.495       .  S
C327        C665   1.472       .  S
C329        C617   1.490       .  S
C330        C608   1.489       .  S
C330        O331   1.277       .  A
N332        C337   1.355   1_445  A
N332        C336   1.355   1_545  A
N332        H364   1.036       .  S
N333        C340   1.354   1_565  A
N333        C341   1.353   1_565  A
N334        C339   1.355   1_445  A
N334        C338   1.354   1_545  A
N334        H365   1.037       .  S
N335        C342   1.353       .  A
N335        C343   1.353       .  A
C336        C344   1.388       .  A
C336        C352   1.419       .  A
C337        C353   1.419   1_565  A
C337        C345   1.388       .  A
C338        C346   1.388       .  A
C338        C355   1.417       .  A
C339        C354   1.417   1_565  A
C339        C347   1.388       .  A
C340        C352   1.417   1_545  A
C340        C348   1.387       .  A
C341        C355   1.416   1_545  A
C341        C349   1.386       .  A
C342        C350   1.387       .  A
C342        C353   1.418       .  A
C343        C351   1.386       .  A
C343        C354   1.416       .  A
C344        C345   1.374   1_455  A
C344        H356   1.082       .  S
C345        H357   1.082       .  S
C346        C347   1.375   1_455  A
C346        H358   1.083       .  S
C347        H359   1.082       .  S
C348        C349   1.376       .  A
C348        H360   1.082       .  S
C349        H361   1.082       .  S
C350        C351   1.376       .  A
C350        H362   1.082       .  S
C351        H363   1.082       .  S
C352        C489   1.485   1_565  S
C353        C505   1.484       .  S
C354        C415   1.483       .  S
C355        C368   1.481   1_565  S
C366        N367   1.359       .  A
C366        N371   1.353       .  A
C366        C593   1.484       .  S
N367        C368   1.361       .  A
C368        N369   1.363   1_545  A
N369        C370   1.362       .  A
C370        N371   1.353   1_565  A
C370        C740   1.490       .  S
O372        C388   1.273       .  A
O372       Zn378   2.009       .  S
C373        C581   1.467       .  S
C373        O389   1.272       .  A
C373        O386   1.274       .  A
O374        C387   1.280       .  A
O374       Cd381   2.118       .  S
O375        C393   1.272       .  A
O375       Cd384   2.044       .  S
O376        C390   1.273       .  A
O376       Cd380   2.065       .  S
O377        C388   1.273       .  A
O377       Cd380   2.058       .  S
Zn378       O389   2.012       .  S
Zn378       O391   1.993       .  S
Zn378       O383   1.941       .  S
O379        C390   1.273       .  A
O379       Cd384   2.069       .  S
Cd380       O382   2.050       .  S
Cd380       O383   1.994       .  S
Cd381       O385   2.108       .  S
Cd381       O394   2.123       .  S
Cd381       O383   2.019       .  S
O382        C392   1.274       .  A
O383       Cd384   1.993       .  S
Cd384       O386   2.060       .  S
O385        C392   1.281       .  A
C387        C548   1.500       .  S
C387        O391   1.272       .  A
C388        C569   1.480       .  S
C390        C596   1.470       .  S
C392        C560   1.491       .  S
C393        C533   1.490       .  S
C393        O394   1.283       .  A
C395        N396   1.353       .  A
C395        N400   1.357       .  A
C395        C584   1.476       .  S
N396        C397   1.355   1_455  A
C397        N398   1.358       .  A
C397        C668   1.491       .  S
N398        C399   1.360       .  A
C399        N400   1.359   1_655  A
C401        N402   1.356       .  A
C401        N406   1.359       .  A
C401        C884   1.490       .  S
N402        C403   1.357   1_556  A
C403        N404   1.358       .  A
C403        C572   1.494       .  S
N404        C405   1.358       .  A
C405        N406   1.360   1_554  A
C407        N408   1.358       .  A
C407        N412   1.358       .  A
C407        C656   1.485       .  S
N408        C409   1.358       .  A
C409        N410   1.362       .  A
C409        C557   1.489       .  S
N410        C411   1.360       .  A
C411        N412   1.359       .  A
C413        N414   1.359       .  A
C413        N418   1.353   1_565  A
C413        C800   1.478       .  S
N414        C415   1.361   1_565  A
C415        N416   1.364       .  A
N416        C417   1.363       .  A
C417        N418   1.355       .  A
C417        C641   1.485       .  S
C419        N420   1.353       .  A
C419        N424   1.360       .  A
C419        C944   1.474       .  S
N420        C421   1.355   1_556  A
C421        N422   1.361       .  A
C421        C629   1.480       .  S
N422        C423   1.364       .  A
C423        N424   1.363   1_554  A
C425        N426   1.358       .  A
C425        N430   1.359       .  A
C425        C620   1.483       .  S
N426        C427   1.357       .  A
C427        N428   1.359       .  A
N428        C429   1.360       .  A
C429        N430   1.358       .  A
C429        C764   1.485       .  S
C431        N432   1.358       .  A
C431        N436   1.358       .  A
C431        C605   1.485       .  S
N432        C433   1.356       .  A
C433        N434   1.360       .  A
C433        C896   1.489       .  S
N434        C435   1.358       .  A
C435        N436   1.357       .  A
C437        N438   1.355       .  A
C437        N442   1.363       .  A
C437        C545   1.491       .  S
N438        C439   1.356       .  A
C439        N440   1.359       .  A
C439        C728   1.497       .  S
N440        C441   1.361       .  A
C441        N442   1.363       .  A
C443        N444   1.358       .  A
C443        N448   1.351   1_455  A
C443        C713   1.473       .  S
N444        C445   1.362   1_455  A
C445        N446   1.363       .  A
N446        C447   1.361       .  A
C447        N448   1.353       .  A
C447        C809   1.483       .  S
C449        N450   1.362       .  A
C449        N454   1.359       .  A
C449        C704   1.487       .  S
N450        C451   1.364       .  A
C451        N452   1.361   1_554  A
N452        C453   1.358       .  A
C453        N454   1.357   1_556  A
C453       C1016   1.478       .  S
C455        N456   1.356       .  A
C455        N460   1.360       .  A
C455        C692   1.478       .  S
N456        C457   1.357       .  A
C457        N458   1.359       .  A
C457        C788   1.483       .  S
N458        C459   1.359       .  A
C459        N460   1.358       .  A
C461        N462   1.356       .  A
C461        N466   1.363       .  A
C461        C968   1.499       .  S
N462        C463   1.355       .  A
C463        N464   1.357       .  A
C463        C677   1.483       .  S
N464        C465   1.359       .  A
C465        N466   1.364       .  A
C467        N468   1.360       .  A
C467        N472   1.355   1_556  A
C467       C1076   1.483       .  S
N468        C469   1.359   1_556  A
C469        N470   1.359       .  A
N470        C471   1.359       .  A
C471        N472   1.354       .  A
C471        C773   1.476       .  S
C473        N474   1.362       .  A
C473        N478   1.353       .  A
C473        C536   1.474       .  S
N474        C475   1.364       .  A
C475        N476   1.362       .  A
N476        C477   1.360       .  A
C477        N478   1.355       .  A
C477        C869   1.488       .  S
C479        N480   1.361       .  A
C479        N484   1.359   1_655  A
C479        C956   1.493       .  S
N480        C481   1.362   1_655  A
C481        N482   1.360       .  A
N482        C483   1.360       .  A
C483        N484   1.355       .  A
C483        C857   1.479       .  S
C485        N486   1.356       .  A
C485        N490   1.360       .  A
C485        C845   1.480       .  S
N486        C487   1.358   1_545  A
C487        N488   1.361       .  A
C487       C1025   1.492       .  S
N488        C489   1.362   1_565  A
C489        N490   1.362       .  A
C491        N492   1.361       .  A
C491        N496   1.354       .  A
C491        C932   1.470       .  S
N492        C493   1.362       .  A
C493        N494   1.358       .  A
N494        C495   1.358       .  A
C495        N496   1.355       .  A
C495        C836   1.476       .  S
C497        N498   1.359       .  A
C497        N502   1.358       .  A
C497        C824   1.500       .  S
N498        C499   1.359       .  A
C499        N500   1.360       .  A
N500        C501   1.358       .  A
C501        N502   1.358       .  A
C501       C1004   1.499       .  S
C503        N504   1.361       .  A
C503        N508   1.355       .  A
C503        C920   1.492       .  S
N504        C505   1.362       .  A
C505        N506   1.362   1_545  A
N506        C507   1.360       .  A
C507        N508   1.353   1_565  A
C507       C1088   1.480       .  S
C509        N510   1.358       .  A
C509        N514   1.358       .  A
C509       C1100   1.487       .  S
N510        C511   1.359       .  A
C511        N512   1.359   1_655  A
N512        C513   1.357       .  A
C513        N514   1.356   1_455  A
C513        C992   1.475       .  S
C515        N516   1.351       .  A
C515        N520   1.358       .  A
C515        C980   1.465       .  S
N516        C517   1.351       .  A
C517        N518   1.360       .  A
C517       C1064   1.480       .  S
N518        C519   1.361       .  A
C519        N520   1.361       .  A
C521        N522   1.359       .  A
C521        N526   1.356       .  A
C521        C908   1.475       .  S
N522        C523   1.359       .  A
C523        N524   1.360       .  A
N524        C525   1.361       .  A
C525        N526   1.356       .  A
C525       C1052   1.486       .  S
C527        N528   1.362       .  A
C527        N532   1.357       .  A
C527        C752   1.490       .  S
N528        C529   1.361       .  A
C529        N530   1.357       .  A
N530        C531   1.357       .  A
C531        N532   1.356       .  A
C531       C1040   1.484       .  S
C533        C534   1.410       .  A
C533        C538   1.415       .  A
C534        C535   1.400       .  A
C534        H543   1.084       .  S
C535        C536   1.408       .  A
C535        S539   1.805       .  S
C536        C537   1.404       .  A
C537        C538   1.405       .  A
C537        H544   1.084       .  S
C538        S540   1.801       .  S
S539        H542   1.405       .  S
S540        H541   1.407       .  S
C545        C546   1.409       .  A
C545        C550   1.413       .  A
C546        C547   1.403       .  A
C546        H555   1.084       .  S
C547        C548   1.416       .  A
C547        S551   1.800       .  S
C548        C549   1.413       .  A
C549        C550   1.402       .  A
C549        H556   1.083       .  S
C550        S552   1.803       .  S
S551        H554   1.408       .  S
S552        H553   1.408       .  S
C557        C558   1.408       .  A
C557        C562   1.414       .  A
C558        C559   1.402       .  A
C558        H567   1.084       .  S
C559        C560   1.415       .  A
C559        S563   1.802       .  S
C560        C561   1.409       .  A
C561        C562   1.400       .  A
C561        H568   1.084       .  S
C562        S564   1.803       .  S
S563        H566   1.408       .  S
S564        H565   1.407       .  S
C569        C570   1.404       .  A
C569        C574   1.411       .  A
C570        C571   1.399       .  A
C570        H579   1.084       .  S
C571        C572   1.420       .  A
C571        S575   1.801       .  S
C572        C573   1.411       .  A
C573        C574   1.396       .  A
C573        H580   1.083       .  S
C574        S576   1.805       .  S
S575        H578   1.407       .  S
S576        H577   1.408       .  S
C581        C582   1.398       .  A
C581        C586   1.413       .  A
C582        C583   1.395       .  A
C582        H591   1.084       .  S
C583        C584   1.416       .  A
C583        S587   1.804       .  S
C584        C585   1.403       .  A
C585        C586   1.400       .  A
C585        H592   1.084       .  S
C586        S588   1.804       .  S
S587        H590   1.407       .  S
S588        H589   1.406       .  S
C593        C594   1.405       .  A
C593        C598   1.419       .  A
C594        C595   1.401       .  A
C594        H603   1.084       .  S
C595        C596   1.413       .  A
C595        S599   1.805       .  S
C596        C597   1.399       .  A
C597        C598   1.398       .  A
C597        H604   1.084       .  S
C598        S600   1.804       .  S
S599        H602   1.406       .  S
S600        H601   1.407       .  S
C605        C606   1.406       .  A
C605        C610   1.413       .  A
C606        C607   1.399       .  A
C606        H615   1.082       .  S
C607        C608   1.416       .  A
C607        S611   1.801       .  S
C608        C609   1.409       .  A
C609        C610   1.398       .  A
C609        H616   1.084       .  S
C610        S612   1.801       .  S
S611        H614   1.408       .  S
S612        H613   1.408       .  S
C617        C618   1.409       .  A
C617        C622   1.416       .  A
C618        C619   1.398       .  A
C618        H627   1.084       .  S
C619        C620   1.414       .  A
C619        S623   1.804       .  S
C620        C621   1.406       .  A
C621        C622   1.401       .  A
C621        H628   1.084       .  S
C622        S624   1.801       .  S
S623        H626   1.407       .  S
S624        H625   1.408       .  S
C629        C630   1.404       .  A
C629        C634   1.412       .  A
C630        C631   1.407       .  A
C630        H639   1.084       .  S
C631        C632   1.419       .  A
C631        S635   1.801       .  S
C632        C633   1.408       .  A
C633        C634   1.396       .  A
C633        H640   1.084       .  S
C634        S636   1.806       .  S
S635        H638   1.407       .  S
S636        H637   1.407       .  S
C641        C642   1.404       .  A
C641        C646   1.418       .  A
C642        C643   1.404       .  A
C642        H651   1.084       .  S
C643        C644   1.417       .  A
C643        S647   1.805       .  S
C644        C645   1.398       .  A
C645        C646   1.398       .  A
C645        H652   1.084       .  S
C646        S648   1.804       .  S
S647        H650   1.406       .  S
S648        H649   1.408       .  S
C653        C654   1.409       .  A
C653        C658   1.418       .  A
C654        C655   1.399       .  A
C654        H663   1.084       .  S
C655        C656   1.412       .  A
C655        S659   1.800       .  S
C656        C657   1.406       .  A
C657        C658   1.401       .  A
C657        H664   1.084       .  S
C658        S660   1.802       .  S
S659        H662   1.407       .  S
S660        H661   1.408       .  S
C665        C666   1.404       .  A
C665        C670   1.406       .  A
C666        C667   1.402       .  A
C666        H675   1.084       .  S
C667        C668   1.419       .  A
C667        S671   1.802       .  S
C668        C669   1.410       .  A
C669        C670   1.393       .  A
C669        H676   1.081       .  S
C670        S672   1.804       .  S
S671        H674   1.408       .  S
S672        H673   1.407       .  S
C677        C678   1.405       .  A
C677        C682   1.413       .  A
C678        C679   1.398       .  A
C678        H687   1.084       .  S
C679        C680   1.417       .  A
C679        S683   1.800       .  S
C680        C681   1.411       .  A
C681        C682   1.400       .  A
C681        H688   1.084       .  S
C682        S684   1.802       .  S
S683        H686   1.408       .  S
S684        H685   1.407       .  S
C689        C690   1.411       .  A
C689        C694   1.418       .  A
C690        C691   1.396       .  A
C690        H699   1.084       .  S
C691        C692   1.410       .  A
C691        S695   1.804       .  S
C692        C693   1.405       .  A
C693        C694   1.403       .  A
C693        H700   1.084       .  S
C694        S696   1.800       .  S
S695        H698   1.407       .  S
S696        H697   1.408       .  S
C701        C702   1.406       .  A
C701        C706   1.419       .  A
C702        C703   1.396       .  A
C702        H711   1.084       .  S
C703        C704   1.412       .  A
C703        S707   1.801       .  S
C704        C705   1.407       .  A
C705        C706   1.409       .  A
C705        H712   1.084       .  S
C706        S708   1.801       .  S
S707        H710   1.407       .  S
S708        H709   1.407       .  S
C713        C714   1.402       .  A
C713        C718   1.412       .  A
C714        C715   1.403       .  A
C714        H723   1.084       .  S
C715        C716   1.418       .  A
C715        S719   1.802       .  S
C716        C717   1.406       .  A
C717        C718   1.395       .  A
C717        H724   1.084       .  S
C718        S720   1.806       .  S
S719        H722   1.408       .  S
S720        H721   1.407       .  S
C725        C726   1.403       .  A
C725        C730   1.408       .  A
C726        C727   1.400       .  A
C726        H735   1.084       .  S
C727        C728   1.420       .  A
C727        S731   1.801       .  S
C728        C729   1.413       .  A
C729        C730   1.397       .  A
C729        H736   1.083       .  S
C730        S732   1.804       .  S
S731        H734   1.408       .  S
S732        H733   1.407       .  S
C737        C738   1.406       .  A
C737        C742   1.421       .  A
C738        C739   1.398       .  A
C738        H747   1.082       .  S
C739        C740   1.418       .  A
C739        S743   1.811       .  S
C740        C741   1.405       .  A
C741        C742   1.403       .  A
C741        H748   1.084       .  S
C742        S744   1.801       .  S
S743        H746   1.407       .  S
S744        H745   1.408       .  S
C749        C750   1.407       .  A
C749        C754   1.413       .  A
C750        C751   1.402       .  A
C750        H759   1.084       .  S
C751        C752   1.416       .  A
C751        S755   1.801       .  S
C752        C753   1.409       .  A
C753        C754   1.398       .  A
C753        H760   1.084       .  S
C754        S756   1.803       .  S
S755        H758   1.407       .  S
S756        H757   1.407       .  S
C761        C762   1.406       .  A
C761        C766   1.420       .  A
C762        C763   1.402       .  A
C762        H771   1.083       .  S
C763        C764   1.416       .  A
C763        S767   1.803       .  S
C764        C765   1.402       .  A
C765        C766   1.399       .  A
C765        H772   1.084       .  S
C766        S768   1.804       .  S
S767        H770   1.408       .  S
S768        H769   1.408       .  S
C773        C774   1.403       .  A
C773        C778   1.417       .  A
C774        C775   1.398       .  A
C774        H783   1.084       .  S
C775        C776   1.412       .  A
C775        S779   1.805       .  S
C776        C777   1.398       .  A
C777        C778   1.397       .  A
C777        H784   1.084       .  S
C778        S780   1.804       .  S
S779        H782   1.406       .  S
S780        H781   1.407       .  S
C785        C786   1.409       .  A
C785        C790   1.414       .  A
C786        C787   1.397       .  A
C786        H795   1.084       .  S
C787        C788   1.413       .  A
C787        S791   1.803       .  S
C788        C789   1.407       .  A
C789        C790   1.400       .  A
C789        H796   1.084       .  S
C790        S792   1.801       .  S
S791        H794   1.408       .  S
S792        H793   1.408       .  S
C797        C798   1.410       .  A
C797        C802   1.420       .  A
C798        C799   1.397       .  A
C798        H807   1.083       .  S
C799        C800   1.411       .  A
C799        S803   1.805       .  S
C800        C801   1.403       .  A
C801        C802   1.404       .  A
C801        H808   1.084       .  S
C802        S804   1.799       .  S
S803        H806   1.407       .  S
S804        H805   1.408       .  S
C809        C810   1.409       .  A
C809        C814   1.415       .  A
C810        C811   1.396       .  A
C810        H819   1.084       .  S
C811        C812   1.408       .  A
C811        S815   1.804       .  S
C812        C813   1.405       .  A
C813        C814   1.401       .  A
C813        H820   1.084       .  S
C814        S816   1.802       .  S
S815        H818   1.407       .  S
S816        H817   1.407       .  S
C821        C822   1.403       .  A
C821        C826   1.410       .  A
C822        C823   1.404       .  A
C822        H831   1.084       .  S
C823        C824   1.422       .  A
C823        S827   1.801       .  S
C824        C825   1.411       .  A
C825        C826   1.397       .  A
C825        H832   1.083       .  S
C826        S828   1.805       .  S
S827        H830   1.408       .  S
S828        H829   1.407       .  S
C833        C834   1.400       .  A
C833        C838   1.412       .  A
C834        C835   1.399       .  A
C834        H843   1.084       .  S
C835        C836   1.415       .  A
C835        S839   1.804       .  S
C836        C837   1.404       .  A
C837        C838   1.398       .  A
C837        H844   1.084       .  S
C838        S840   1.806       .  S
S839        H842   1.407       .  S
S840        H841   1.404       .  S
C845        C846   1.403       .  A
C845        C850   1.410       .  A
C846        C847   1.402       .  A
C846        H855   1.084       .  S
C847        C848   1.420       .  A
C847        S851   1.801       .  S
C848        C849   1.413       .  A
C849        C850   1.403       .  A
C849        H856   1.083       .  S
C850        S852   1.804       .  S
S851        H854   1.408       .  S
S852        H853   1.406       .  S
C857        C858   1.405       .  A
C857        C862   1.409       .  A
C858        C859   1.404       .  A
C858        H867   1.084       .  S
C859        C860   1.419       .  A
C859        S863   1.801       .  S
C860        C861   1.412       .  A
C861        C862   1.398       .  A
C861        H868   1.083       .  S
C862        S864   1.804       .  S
S863        H866   1.407       .  S
S864        H865   1.407       .  S
C869        C870   1.406       .  A
C869        C874   1.419       .  A
C870        C871   1.402       .  A
C870        H879   1.084       .  S
C871        C872   1.414       .  A
C871        S875   1.804       .  S
C872        C873   1.400       .  A
C873        C874   1.397       .  A
C873        H880   1.084       .  S
C874        S876   1.804       .  S
S875        H878   1.407       .  S
S876        H877   1.408       .  S
C881        C882   1.407       .  A
C881        C886   1.413       .  A
C882        C883   1.402       .  A
C882        H891   1.084       .  S
C883        C884   1.417       .  A
C883        S887   1.802       .  S
C884        C885   1.408       .  A
C885        C886   1.398       .  A
C885        H892   1.084       .  S
C886        S888   1.803       .  S
S887        H890   1.407       .  S
S888        H889   1.408       .  S
C893        C894   1.400       .  A
C893        C898   1.413       .  A
C894        C895   1.404       .  A
C894        H903   1.083       .  S
C895        C896   1.421       .  A
C895        S899   1.808       .  S
C896        C897   1.405       .  A
C897        C898   1.395       .  A
C897        H904   1.083       .  S
C898        S900   1.806       .  S
S899        H902   1.407       .  S
S900        H901   1.407       .  S
C905        C906   1.413       .  A
C905        C910   1.421       .  A
C906        C907   1.398       .  A
C906        H915   1.083       .  S
C907        C908   1.406       .  A
C907        S911   1.800       .  S
C908        C909   1.402       .  A
C909        C910   1.402       .  A
C909        H916   1.084       .  S
C910        S912   1.800       .  S
S911        H914   1.406       .  S
S912        H913   1.408       .  S
C917        C918   1.405       .  A
C917        C922   1.409       .  A
C918        C919   1.403       .  A
C918        H927   1.084       .  S
C919        C920   1.417       .  A
C919        S923   1.801       .  S
C920        C921   1.411       .  A
C921        C922   1.397       .  A
C921        H928   1.082       .  S
C922        S924   1.804       .  S
S923        H926   1.407       .  S
S924        H925   1.407       .  S
C929        C930   1.406       .  A
C929        C934   1.419       .  A
C930        C931   1.404       .  A
C930        H939   1.084       .  S
C931        C932   1.412       .  A
C931        S935   1.803       .  S
C932        C933   1.398       .  A
C933        C934   1.397       .  A
C933        H940   1.084       .  S
C934        S936   1.804       .  S
S935        H938   1.404       .  S
S936        H937   1.408       .  S
C941        C942   1.406       .  A
C941        C946   1.416       .  A
C942        C943   1.406       .  A
C942        H951   1.084       .  S
C943        C944   1.414       .  A
C943        S947   1.804       .  S
C944        C945   1.400       .  A
C945        C946   1.396       .  A
C945        H952   1.084       .  S
C946        S948   1.806       .  S
S947        H950   1.406       .  S
S948        H949   1.408       .  S
C953        C954   1.408       .  A
C953        C958   1.418       .  A
C954        C955   1.402       .  A
C954        H963   1.084       .  S
C955        C956   1.416       .  A
C955        S959   1.801       .  S
C956        C957   1.407       .  A
C957        C958   1.402       .  A
C957        H964   1.082       .  S
C958        S960   1.812       .  S
S959        H962   1.405       .  S
S960        H961   1.406       .  S
C965        C966   1.403       .  A
C965        C970   1.407       .  A
C966        C967   1.404       .  A
C966        H975   1.084       .  S
C967        C968   1.419       .  A
C967        S971   1.801       .  S
C968        C969   1.413       .  A
C969        C970   1.398       .  A
C969        H976   1.083       .  S
C970        S972   1.805       .  S
S971        H974   1.407       .  S
S972        H973   1.406       .  S
C977        C978   1.403       .  A
C977        C982   1.412       .  A
C978        C979   1.403       .  A
C978        H987   1.084       .  S
C979        C980   1.412       .  A
C979        S983   1.804       .  S
C980        C981   1.399       .  A
C981        C982   1.393       .  A
C981        H988   1.085       .  S
C982        S984   1.806       .  S
S983        H986   1.406       .  S
S984        H985   1.407       .  S
C989        C990   1.407       .  A
C989        C994   1.418       .  A
C990        C991   1.395       .  A
C990        H999   1.084       .  S
C991        C992   1.410       .  A
C991        S995   1.805       .  S
C992        C993   1.404       .  A
C993        C994   1.403       .  A
C993       H1000   1.084       .  S
C994        S996   1.802       .  S
S995        H998   1.407       .  S
S996        H997   1.407       .  S
C1001      C1002   1.403       .  A
C1001      C1006   1.408       .  A
C1002      C1003   1.401       .  A
C1002      H1011   1.084       .  S
C1003      C1004   1.421       .  A
C1003      S1007   1.801       .  S
C1004      C1005   1.413       .  A
C1005      C1006   1.399       .  A
C1005      H1012   1.083       .  S
C1006      S1008   1.803       .  S
S1007      H1010   1.408       .  S
S1008      H1009   1.407       .  S
C1013      C1014   1.406       .  A
C1013      C1018   1.418       .  A
C1014      C1015   1.398       .  A
C1014      H1023   1.084       .  S
C1015      C1016   1.410       .  A
C1015      S1019   1.802       .  S
C1016      C1017   1.403       .  A
C1017      C1018   1.405       .  A
C1017      H1024   1.084       .  S
C1018      S1020   1.802       .  S
S1019      H1022   1.407       .  S
S1020      H1021   1.407       .  S
C1025      C1026   1.408       .  A
C1025      C1030   1.419       .  A
C1026      C1027   1.403       .  A
C1026      H1035   1.083       .  S
C1027      C1028   1.415       .  A
C1027      S1031   1.804       .  S
C1028      C1029   1.401       .  A
C1029      C1030   1.399       .  A
C1029      H1036   1.084       .  S
C1030      S1032   1.803       .  S
S1031      H1034   1.407       .  S
S1032      H1033   1.408       .  S
C1037      C1038   1.406       .  A
C1037      C1042   1.412       .  A
C1038      C1039   1.397       .  A
C1038      H1047   1.084       .  S
C1039      C1040   1.415       .  A
C1039      S1043   1.803       .  S
C1040      C1041   1.408       .  A
C1041      C1042   1.399       .  A
C1041      H1048   1.084       .  S
C1042      S1044   1.800       .  S
S1043      H1046   1.408       .  S
S1044      H1045   1.407       .  S
C1049      C1050   1.403       .  A
C1049      C1054   1.415       .  A
C1050      C1051   1.400       .  A
C1050      H1059   1.084       .  S
C1051      C1052   1.418       .  A
C1051      S1055   1.804       .  S
C1052      C1053   1.404       .  A
C1053      C1054   1.402       .  A
C1053      H1060   1.082       .  S
C1054      S1056   1.810       .  S
S1055      H1058   1.408       .  S
S1056      H1057   1.407       .  S
C1061      C1062   1.402       .  A
C1061      C1066   1.417       .  A
C1062      C1063   1.402       .  A
C1062      H1071   1.082       .  S
C1063      C1064   1.418       .  A
C1063      S1067   1.811       .  S
C1064      C1065   1.401       .  A
C1065      C1066   1.396       .  A
C1065      H1072   1.084       .  S
C1066      S1068   1.804       .  S
S1067      H1070   1.407       .  S
S1068      H1069   1.408       .  S
C1073      C1074   1.402       .  A
C1073      C1078   1.408       .  A
C1074      C1075   1.399       .  A
C1074      H1083   1.084       .  S
C1075      C1076   1.415       .  A
C1075      S1079   1.802       .  S
C1076      C1077   1.408       .  A
C1077      C1078   1.397       .  A
C1077      H1084   1.083       .  S
C1078      S1080   1.805       .  S
S1079      H1082   1.407       .  S
S1080      H1081   1.406       .  S
C1085      C1086   1.397       .  A
C1085      C1090   1.413       .  A
C1086      C1087   1.397       .  A
C1086      H1095   1.084       .  S
C1087      C1088   1.418       .  A
C1087      S1091   1.804       .  S
C1088      C1089   1.403       .  A
C1089      C1090   1.401       .  A
C1089      H1096   1.084       .  S
C1090      S1092   1.805       .  S
S1091      H1094   1.407       .  S
S1092      H1093   1.407       .  S
C1097      C1098   1.403       .  A
C1097      C1102   1.410       .  A
C1098      C1099   1.403       .  A
C1098      H1107   1.084       .  S
C1099      C1100   1.419       .  A
C1099      S1103   1.802       .  S
C1100      C1101   1.407       .  A
C1101      C1102   1.395       .  A
C1101      H1108   1.084       .  S
C1102      S1104   1.805       .  S
S1103      H1106   1.408       .  S
S1104      H1105   1.407       .  S
