geometry optimzed in LAMMPS
_audit_creation_date              2020-11-30 
_audit_creation_method            'lammps2cif' 
_symmetry_space_group_name_H-M    'P1' 
_symmetry_Int_Tables_number       1 
_symmetry_cell_setting            triclinic 
loop_ 
_symmetry_equiv_pos_as_xyz 
  x,y,z 
_cell_length_a                    29.71613973 
_cell_length_b                    46.48660956385421 
_cell_length_c                    29.19135596484512 
_cell_angle_alpha                 89.99391317860828 
_cell_angle_beta                  90.0001646367504 
_cell_angle_gamma                 90.004010035717 
loop_ 
_atom_site_label 
_atom_site_type_symbol 
_atom_site_fract_x 
_atom_site_fract_y 
_atom_site_fract_z 
_atom_site_charge 
C1          C  0.13304893  0.14632414  0.12787844     0.80800
N2          N  0.17166451  0.13067336  0.12801673    -0.77500
C3          C  0.19121452  0.12305062  0.16837520     0.83300
N4          N  0.17153449  0.13069135  0.20863436    -0.77400
C5          C  0.13294052  0.14634829  0.20866135     0.83300
N6          N  0.11393872  0.15413986  0.16823326    -0.79200
O7          O  0.95325681  0.34180526  0.04669971    -0.57200
C8          C  0.96533995  0.33099661  0.25183276     0.75400
O9          O  0.07370652  0.34813615  0.37200272    -0.58400
C10         C  0.96517050  0.33103441  0.08466434     0.75400
C11         C  0.03288889  0.25766018  0.33540376     0.77800
Cd12       Cd  0.01428403  0.31859071  0.33504184     1.37500
O13         O  0.95197273  0.34051710  0.29012723    -0.57200
O14         O  0.99303292  0.26717099  0.33490673    -0.56000
C15         C  0.09315267  0.35548088  0.00207055     0.77700
O16         O  0.06405384  0.27612940  0.33581298    -0.58400
O17         O  0.00025698  0.31547146  0.25229138    -0.56900
O18         O  0.99867140  0.31426901  0.08392855    -0.56800
O19         O  0.07574558  0.34652544  0.29865104    -0.56000
O20         O  0.12216772  0.14262194  0.04670467    -0.57200
C21         C  0.11009324  0.15343232  0.25183610     0.75400
O22         O  0.50170927  0.13629132  0.03866723    -0.58400
C23         C  0.11025375  0.15339099  0.08466623     0.75400
C24         C  0.04253138  0.22676468  0.33540093     0.77800
Cd25       Cd  0.06113928  0.16583470  0.33503802     1.37500
O26         O  0.12343410  0.14389015  0.29012734    -0.57200
O27         O  0.08238753  0.21725440  0.33493929    -0.56000
C28         C  0.48226510  0.12894744  0.00206707     0.77700
O29         O  0.51136581  0.20829489  0.33576979    -0.58400
O30         O  0.07520065  0.16898132  0.25229322    -0.56900
O31         O  0.57674909  0.17015448  0.08392554    -0.56800
O32         O  0.49967626  0.13790287  0.29864837    -0.56000
C33         C  0.94237625  0.33810212  0.12787422     0.80800
N34         N  0.40375666  0.35374803  0.12800949    -0.77500
C35         C  0.38420469  0.36136834  0.16836510     0.83300
N36         N  0.40388984  0.35372886  0.20862729    -0.77400
C37         C  0.94248870  0.33807900  0.20865684     0.83300
N38         N  0.96149233  0.33028973  0.16823209    -0.79200
C39         C  0.19238420  0.39631421  0.04269336     0.80800
N40         N  0.21150074  0.40412649  0.00233799    -0.77500
C41         C  0.19249500  0.39634022  0.29524513     0.83300
N42         N  0.15388935  0.38069159  0.29527435    -0.77400
C43         C  0.13420281  0.37305298  0.00220241     0.83300
N44         N  0.15375741  0.38067070  0.04255910    -0.79200
O45         O  0.20327221  0.39260287  0.12386729    -0.57200
C46         C  0.21534583  0.40342224  0.25207055     0.75400
O47         O  0.32373463  0.38630514  0.13189544    -0.58400
C48         C  0.21518113  0.40337987  0.08590555     0.75400
C49         C  0.28289005  0.47676215  0.16851032     0.77800
Cd50       Cd  0.26429302  0.41582769  0.16886207     1.37500
O51         O  0.20197234  0.39390598  0.21377423    -0.57200
O52         O  0.24303520  0.46724393  0.16896808    -0.56000
C53         C  0.34315835  0.37894158  0.16849671     0.77700
O54         O  0.31405867  0.45829592  0.16813741    -0.58400
O55         O  0.25027104  0.41894367  0.25161237    -0.56900
O56         O  0.24867894  0.42015053  0.08664253    -0.56800
O57         O  0.32573340  0.38787717  0.20525022    -0.56000
O58         O  0.37213845  0.09182542  0.12386898    -0.57200
C59         C  0.36007869  0.08099814  0.25207517     0.75400
O60         O  0.25169388  0.09812555  0.13190844    -0.58400
C61         C  0.36024185  0.08104059  0.08591192     0.75400
C62         C  0.29252612  0.00765704  0.16851450     0.77800
Cd63       Cd  0.31112728  0.06859081  0.16887241     1.37500
O64         O  0.37344249  0.09052049  0.21377938    -0.57200
O65         O  0.33238215  0.01717463  0.16901574    -0.56000
C66         C  0.23225975  0.10547424  0.16850806     0.77700
O67         O  0.26135950  0.02612313  0.16810567    -0.58400
O68         O  0.32516210  0.06546761  0.25162327    -0.56900
O69         O  0.32675537  0.06426023  0.08665700    -0.56800
O70         O  0.24967202  0.09652368  0.20526142    -0.56000
C71         C  0.38303823  0.08810834  0.04270003     0.80800
N72         N  0.42165982  0.10375488  0.04255947    -0.78300
C73         C  0.44121529  0.11137507  0.00220323     0.83300
N74         N  0.42152948  0.10373452  0.29527503    -0.77400
C75         C  0.38292932  0.08808273  0.29525022     0.83300
N76         N  0.36392334  0.08029361  0.00234427    -0.79200
C77         C  0.13304887  0.14632416  0.46121124     0.80800
N78         N  0.17166435  0.13067340  0.46135074    -0.77500
C79         C  0.19121502  0.12305027  0.50170733     0.83300
N80         N  0.17153443  0.13069135  0.54196855    -0.77400
C81         C  0.13293962  0.14634870  0.54199403     0.83300
N82         N  0.11393898  0.15413966  0.50156736    -0.79200
O83         O  0.95325692  0.34180519  0.38003253    -0.57200
C84         C  0.96533975  0.33099667  0.58516620     0.75400
O85         O  0.07370656  0.34813612  0.70533645    -0.58400
C86         C  0.96517027  0.33103436  0.41799866     0.75400
C87         C  0.03288892  0.25765918  0.66873723     0.77800
Cd88       Cd  0.01428403  0.31859073  0.66837524     1.37500
O89         O  0.95197268  0.34051708  0.62346058    -0.57200
O90         O  0.99303263  0.26717119  0.66824028    -0.56000
C91         C  0.09315172  0.35548039  0.33540537     0.77700
O92         O  0.06405393  0.27612965  0.66914621    -0.58400
O93         O  0.00025699  0.31547141  0.58562483    -0.56900
O94         O  0.99867159  0.31426886  0.41726169    -0.56800
O95         O  0.07574567  0.34652550  0.63198492    -0.56000
O96         O  0.12216765  0.14262184  0.38003815    -0.57200
C97         C  0.11009309  0.15343262  0.58516804     0.75400
O98         O  0.50170915  0.13629133  0.37200049    -0.58400
C99         C  0.11025390  0.15339087  0.41799906     0.75400
C100        C  0.04253108  0.22676484  0.66873441     0.77800
Cd101      Cd  0.06113926  0.16583468  0.66837140     1.37500
O102        O  0.12343413  0.14389006  0.62346130    -0.57200
O103        O  0.08238749  0.21725436  0.66827253    -0.56000
C104        C  0.48226587  0.12894783  0.33540017     0.77700
O105        O  0.51136577  0.20829487  0.66910317    -0.58400
O106        O  0.07520064  0.16898129  0.58562679    -0.56900
O107        O  0.57674916  0.17015450  0.41725884    -0.56800
O108        O  0.49967624  0.13790287  0.63198170    -0.56000
C109        C  0.94237649  0.33810197  0.46120774     0.80800
N110        N  0.40375644  0.35374801  0.46134267    -0.77500
C111        C  0.38420482  0.36136815  0.50169840     0.83300
N112        N  0.40388970  0.35372883  0.54196068    -0.77400
C113        C  0.94248864  0.33807897  0.54199027     0.83300
N114        N  0.96149238  0.33028962  0.50156513    -0.79200
C115        C  0.19238356  0.39631402  0.37602827     0.80800
N116        N  0.21150106  0.40412665  0.33567050    -0.77500
C117        C  0.19249534  0.39634026  0.62857849     0.83300
N118        N  0.15388959  0.38069157  0.62860838    -0.77400
C119        C  0.13420292  0.37305299  0.33553636     0.83300
N120        N  0.15375767  0.38067081  0.37589194    -0.79200
O121        O  0.20327238  0.39260295  0.45720041    -0.57200
C122        C  0.21534658  0.40342241  0.58540245     0.75400
O123        O  0.32373446  0.38630506  0.46522868    -0.58400
C124        C  0.21517974  0.40337911  0.41923911     0.75400
C125        C  0.28288971  0.47676115  0.50184358     0.77800
Cd126      Cd  0.26429304  0.41582765  0.50219541     1.37500
O127        O  0.20197222  0.39390596  0.54710804    -0.57200
O128        O  0.24303559  0.46724413  0.50230140    -0.56000
C129        C  0.34315861  0.37894138  0.50182981     0.77700
O130        O  0.31405855  0.45829622  0.50147074    -0.58400
O131        O  0.25027076  0.41894349  0.58494588    -0.56900
O132        O  0.24867943  0.42015075  0.41997601    -0.56800
O133        O  0.32573320  0.38787725  0.53858361    -0.56000
O134        O  0.37213847  0.09182560  0.45720258    -0.57200
C135        C  0.36007714  0.08099729  0.58540911     0.75400
O136        O  0.25169363  0.09812549  0.46524200    -0.58400
C137        C  0.36024129  0.08104034  0.41924492     0.75400
C138        C  0.29252716  0.00765761  0.50184772     0.77800
Cd139      Cd  0.31112731  0.06859083  0.50220572     1.37500
O140        O  0.37344274  0.09052057  0.54711247    -0.57200
O141        O  0.33238175  0.01717444  0.50234907    -0.56000
C142        C  0.23225929  0.10547445  0.50184036     0.77700
O143        O  0.26135953  0.02612296  0.50143900    -0.58400
O144        O  0.32516272  0.06546783  0.58495670    -0.56900
O145        O  0.32675563  0.06426032  0.41999042    -0.56800
O146        O  0.24967234  0.09652360  0.53859506    -0.56000
C147        C  0.38303773  0.08810819  0.37603320     0.80800
N148        N  0.42166021  0.10375504  0.37589297    -0.78300
C149        C  0.44121533  0.11137524  0.33553625     0.83300
N150        N  0.42153030  0.10373482  0.62860877    -0.77400
C151        C  0.38292840  0.08808237  0.62858350     0.83300
N152        N  0.36392326  0.08029364  0.33567814    -0.79200
C153        C  0.13304830  0.14632436  0.79454511     0.80800
N154        N  0.17166477  0.13067315  0.79468386    -0.77500
C155        C  0.19121495  0.12305019  0.83504117     0.83300
N156        N  0.17153474  0.13069118  0.87530161    -0.77400
C157        C  0.13293933  0.14634875  0.87532750     0.83300
N158        N  0.11393931  0.15413951  0.83490040    -0.79200
O159        O  0.95325682  0.34180515  0.71336636    -0.57200
C160        C  0.96533992  0.33099667  0.91849996     0.75400
O161        O  0.07370604  0.34813602  0.03866985    -0.58400
C162        C  0.96517036  0.33103435  0.75133110     0.75400
C163        C  0.03288960  0.25765994  0.00207059     0.77800
Cd164      Cd  0.01428396  0.31859076  0.00170847     1.37500
O165        O  0.95197273  0.34051720  0.95679384    -0.57200
O166        O  0.99303263  0.26717112  0.00157378    -0.56000
C167        C  0.09315164  0.35548033  0.66873740     0.77700
O168        O  0.06405362  0.27612943  0.00247940    -0.58400
O169        O  0.00025660  0.31547134  0.91895799    -0.56900
O170        O  0.99867139  0.31426904  0.75059541    -0.56800
O171        O  0.07574537  0.34652534  0.96531785    -0.56000
O172        O  0.12216772  0.14262179  0.71337142    -0.57200
C173        C  0.11009291  0.15343254  0.91850169     0.75400
O174        O  0.50170900  0.13629115  0.70533367    -0.58400
C175        C  0.11025318  0.15339121  0.75133232     0.75400
C176        C  0.04253134  0.22676605  0.00206779     0.77800
Cd177      Cd  0.06113919  0.16583478  0.00170470     1.37500
O178        O  0.12343410  0.14389019  0.95679458    -0.57200
O179        O  0.08238759  0.21725423  0.00160590    -0.56000
C180        C  0.48226653  0.12894799  0.66873412     0.77700
O181        O  0.51136535  0.20829465  0.00243655    -0.58400
O182        O  0.07520068  0.16898126  0.91895992    -0.56900
O183        O  0.57674950  0.17015435  0.75059224    -0.56800
O184        O  0.49967622  0.13790307  0.96531491    -0.56000
C185        C  0.94237638  0.33810193  0.79454109     0.80800
N186        N  0.40375696  0.35374788  0.79467614    -0.77500
C187        C  0.38420379  0.36136865  0.83503148     0.83300
N188        N  0.40389003  0.35372879  0.87529405    -0.77400
C189        C  0.94248886  0.33807894  0.87532351     0.83300
N190        N  0.96149211  0.33028970  0.83489870    -0.79200
C191        C  0.19238489  0.39631434  0.70936133     0.80800
N192        N  0.21150052  0.40412637  0.66900423    -0.77500
C193        C  0.19249555  0.39634048  0.96191195     0.83300
N194        N  0.15388906  0.38069143  0.96194120    -0.77400
C195        C  0.13420222  0.37305268  0.66886835     0.83300
N196        N  0.15375785  0.38067074  0.70922589    -0.79200
O197        O  0.20327237  0.39260283  0.79053430    -0.57200
C198        C  0.21534628  0.40342230  0.91873545     0.75400
O199        O  0.32373451  0.38630518  0.79856201    -0.58400
C200        C  0.21518020  0.40337935  0.75257092     0.75400
C201        C  0.28289028  0.47676139  0.83517695     0.77800
Cd202      Cd  0.26429300  0.41582770  0.83552871     1.37500
O203        O  0.20197228  0.39390600  0.88044132    -0.57200
O204        O  0.24303529  0.46724403  0.83563460    -0.56000
C205        C  0.34315908  0.37894130  0.83516343     0.77700
O206        O  0.31405840  0.45829624  0.83480429    -0.58400
O207        O  0.25027071  0.41894364  0.91827910    -0.56900
O208        O  0.24867934  0.42015065  0.75330938    -0.56800
O209        O  0.32573321  0.38787737  0.87191693    -0.56000
O210        O  0.37213849  0.09182555  0.79053596    -0.57200
C211        C  0.36007752  0.08099767  0.91874208     0.75400
O212        O  0.25169423  0.09812540  0.79857509    -0.58400
C213        C  0.36024219  0.08104064  0.75257777     0.75400
C214        C  0.29252705  0.00765800  0.83518121     0.77800
Cd215      Cd  0.31112736  0.06859085  0.83553913     1.37500
O216        O  0.37344274  0.09052063  0.88044599    -0.57200
O217        O  0.33238163  0.01717436  0.83568272    -0.56000
C218        C  0.23225820  0.10547486  0.83517428     0.77700
O219        O  0.26135963  0.02612296  0.83477232    -0.58400
O220        O  0.32516261  0.06546785  0.91829005    -0.56900
O221        O  0.32675536  0.06426015  0.75332396    -0.56800
O222        O  0.24967245  0.09652351  0.87192847    -0.56000
C223        C  0.38303786  0.08810810  0.70936703     0.80800
N224        N  0.42166009  0.10375497  0.70922626    -0.78300
C225        C  0.44121474  0.11137486  0.66886917     0.83300
N226        N  0.42153013  0.10373482  0.96194154    -0.77400
C227        C  0.38292815  0.08808234  0.96191748     0.83300
N228        N  0.36392354  0.08029360  0.66901118    -0.79200
C229        C  0.13304860  0.64632431  0.12787867     0.80800
N230        N  0.17166440  0.63067339  0.12801673    -0.77500
C231        C  0.19121535  0.62305017  0.16837526     0.83300
N232        N  0.17153492  0.63069121  0.20863434    -0.77400
C233        C  0.13293942  0.64634879  0.20866113     0.83300
N234        N  0.11393929  0.65413957  0.16823327    -0.79200
O235        O  0.95325691  0.84180523  0.04669954    -0.57200
C236        C  0.96533941  0.83099696  0.25183278     0.75400
O237        O  0.07370632  0.84813620  0.37200275    -0.58400
C238        C  0.96516963  0.83103467  0.08466496     0.75400
C239        C  0.03288888  0.75765917  0.33540376     0.77800
Cd240      Cd  0.01428403  0.81859073  0.33504178     1.37500
O241        O  0.95197283  0.84051721  0.29012704    -0.57200
O242        O  0.99303259  0.76717118  0.33490672    -0.56000
C243        C  0.09315235  0.85548069  0.00207045     0.77700
O244        O  0.06405389  0.77612964  0.33581298    -0.58400
O245        O  0.00025692  0.81547132  0.25229138    -0.56900
O246        O  0.99867164  0.81426890  0.08392844    -0.56800
O247        O  0.07574547  0.84652535  0.29865097    -0.56000
O248        O  0.12216782  0.64262189  0.04670474    -0.57200
C249        C  0.11009278  0.65343253  0.25183638     0.75400
O250        O  0.50170903  0.63629114  0.03866696    -0.58400
C251        C  0.11025407  0.65339081  0.08466588     0.75400
C252        C  0.04253104  0.72676483  0.33540094     0.77800
Cd253      Cd  0.06113926  0.66583466  0.33503801     1.37500
O254        O  0.12343418  0.64389023  0.29012735    -0.57200
O255        O  0.08238744  0.71725434  0.33493931    -0.56000
C256        C  0.48226617  0.62894788  0.00206726     0.77700
O257        O  0.51136574  0.70829485  0.33576981    -0.58400
O258        O  0.07520091  0.66898120  0.25229308    -0.56900
O259        O  0.57674924  0.67015440  0.08392545    -0.56800
O260        O  0.49967611  0.63790280  0.29864850    -0.56000
C261        C  0.94237655  0.83810192  0.12787326     0.80800
N262        N  0.40375698  0.85374789  0.12800995    -0.77500
C263        C  0.38420335  0.86136891  0.16836448     0.83300
N264        N  0.40389018  0.85372873  0.20862726    -0.77400
C265        C  0.94248920  0.83807888  0.20865762     0.83300
N266        N  0.96149207  0.83028983  0.16823193    -0.79200
C267        C  0.19238371  0.89631401  0.04269409     0.80800
N268        N  0.21150111  0.90412658  0.00233757    -0.77500
C269        C  0.19249526  0.89634024  0.29524497     0.83300
N270        N  0.15388961  0.88069172  0.29527446    -0.77400
C271        C  0.13420276  0.87305291  0.00220228     0.83300
N272        N  0.15375781  0.88067084  0.04255908    -0.79200
O273        O  0.20327226  0.89260283  0.12386737    -0.57200
C274        C  0.21534590  0.90342217  0.25207077     0.75400
O275        O  0.32373453  0.88630519  0.13189537    -0.58400
C276        C  0.21518009  0.90337934  0.08590510     0.75400
C277        C  0.28288932  0.97676117  0.16851032     0.77800
Cd278      Cd  0.26429299  0.91582766  0.16886211     1.37500
O279        O  0.20197219  0.89390594  0.21377419    -0.57200
O280        O  0.24303575  0.96724415  0.16896806    -0.56000
C281        C  0.34315937  0.87894110  0.16849654     0.77700
O282        O  0.31405864  0.95829614  0.16813741    -0.58400
O283        O  0.25027104  0.91894364  0.25161231    -0.56900
O284        O  0.24867930  0.92015067  0.08664277    -0.56800
O285        O  0.32573304  0.88787729  0.20525038    -0.56000
O286        O  0.37213858  0.59182555  0.12386906    -0.57200
C287        C  0.36007749  0.58099765  0.25207524     0.75400
O288        O  0.25169433  0.59812537  0.13190822    -0.58400
C289        C  0.36024160  0.58104046  0.08591177     0.75400
C290        C  0.29252678  0.50765766  0.16851451     0.77800
Cd291      Cd  0.31112740  0.56859084  0.16887239     1.37500
O292        O  0.37344271  0.59052056  0.21377931    -0.57200
O293        O  0.33238178  0.51717443  0.16901574    -0.56000
C294        C  0.23225823  0.60547490  0.16850832     0.77700
O295        O  0.26135962  0.52612299  0.16810566    -0.58400
O296        O  0.32516258  0.56546781  0.25162332    -0.56900
O297        O  0.32675558  0.56426025  0.08665710    -0.56800
O298        O  0.24967249  0.59652349  0.20526162    -0.56000
C299        C  0.38303808  0.58810826  0.04270013     0.80800
N300        N  0.42165998  0.60375492  0.04255937    -0.78300
C301        C  0.44121536  0.61137519  0.00220342     0.83300
N302        N  0.42153000  0.60373471  0.29527515    -0.77400
C303        C  0.38292841  0.58808247  0.29525041     0.83300
N304        N  0.36392344  0.58029372  0.00234426    -0.79200
C305        C  0.13304839  0.64632437  0.46121174     0.80800
N306        N  0.17166462  0.63067320  0.46135066    -0.77500
C307        C  0.19121487  0.62305030  0.50170752     0.83300
N308        N  0.17153468  0.63069128  0.54196844    -0.77400
C309        C  0.13293926  0.64634869  0.54199395     0.83300
N310        N  0.11393926  0.65413954  0.50156724    -0.79200
O311        O  0.95325688  0.84180518  0.38003255    -0.57200
C312        C  0.96534018  0.83099656  0.58516637     0.75400
O313        O  0.07370619  0.84813598  0.70533667    -0.58400
C314        C  0.96517025  0.83103422  0.41799859     0.75400
C315        C  0.03288823  0.75765986  0.66873723     0.77800
Cd316      Cd  0.01428400  0.81859071  0.66837524     1.37500
O317        O  0.95197268  0.84051715  0.62346057    -0.57200
O318        O  0.99303299  0.76717097  0.66824030    -0.56000
C319        C  0.09315204  0.85548071  0.33540528     0.77700
O320        O  0.06405387  0.77612950  0.66914624    -0.58400
O321        O  0.00025664  0.81547143  0.58562473    -0.56900
O322        O  0.99867155  0.81426901  0.41726183    -0.56800
O323        O  0.07574551  0.84652538  0.63198476    -0.56000
O324        O  0.12216762  0.64262179  0.38003819    -0.57200
C325        C  0.11009321  0.65343236  0.58516864     0.75400
O326        O  0.50170901  0.63629113  0.37200041    -0.58400
C327        C  0.11025346  0.65339100  0.41799852     0.75400
C328        C  0.04253011  0.72676575  0.66873442     0.77800
Cd329      Cd  0.06113921  0.66583472  0.66837144     1.37500
O330        O  0.12343407  0.64389021  0.62346120    -0.57200
O331        O  0.08238787  0.71725418  0.66827253    -0.56000
C332        C  0.48226641  0.62894794  0.33540005     0.77700
O333        O  0.51136566  0.70829472  0.66910317    -0.58400
O334        O  0.07520057  0.66898130  0.58562668    -0.56900
O335        O  0.57674940  0.67015439  0.41725891    -0.56800
O336        O  0.49967636  0.63790309  0.63198152    -0.56000
C337        C  0.94237677  0.83810174  0.46120800     0.80800
N338        N  0.40375661  0.85374806  0.46134269    -0.77500
C339        C  0.38420434  0.86136840  0.50169839     0.83300
N340        N  0.40388958  0.85372890  0.54196071    -0.77400
C341        C  0.94248939  0.83807874  0.54199018     0.83300
N342        N  0.96149194  0.83028981  0.50156501    -0.79200
C343        C  0.19238443  0.89631438  0.37602790     0.80800
N344        N  0.21150076  0.90412647  0.33567078    -0.77500
C345        C  0.19249547  0.89634020  0.62857826     0.83300
N346        N  0.15388935  0.88069144  0.62860827    -0.77400
C347        C  0.13420251  0.87305284  0.33553620     0.83300
N348        N  0.15375733  0.88067067  0.37589189    -0.79200
O349        O  0.20327214  0.89260295  0.45720059    -0.57200
C350        C  0.21534590  0.90342212  0.58540366     0.75400
O351        O  0.32373449  0.88630512  0.46522868    -0.58400
C352        C  0.21518100  0.90337984  0.41923906     0.75400
C353        C  0.28289028  0.97676170  0.50184357     0.77800
Cd354      Cd  0.26429301  0.91582773  0.50219536     1.37500
O355        O  0.20197234  0.89390597  0.54710766    -0.57200
O356        O  0.24303524  0.96724398  0.50230141    -0.56000
C357        C  0.34315886  0.87894133  0.50182976     0.77700
O358        O  0.31405859  0.95829613  0.50147073    -0.58400
O359        O  0.25027104  0.91894365  0.58494572    -0.56900
O360        O  0.24867889  0.92015046  0.41997581    -0.56800
O361        O  0.32573320  0.88787733  0.53858359    -0.56000
O362        O  0.37213852  0.59182555  0.45720239    -0.57200
C363        C  0.36007797  0.58099776  0.58540940     0.75400
O364        O  0.25169396  0.59812554  0.46524188    -0.58400
C365        C  0.36024144  0.58104036  0.41924507     0.75400
C366        C  0.29252673  0.50765727  0.50184772     0.77800
Cd367      Cd  0.31112735  0.56859087  0.50220572     1.37500
O368        O  0.37344268  0.59052066  0.54711253    -0.57200
O369        O  0.33238196  0.51717457  0.50234909    -0.56000
C370        C  0.23225891  0.60547450  0.50184067     0.77700
O371        O  0.26135950  0.52612317  0.50143901    -0.58400
O372        O  0.32516242  0.56546769  0.58495648    -0.56900
O373        O  0.32675554  0.56426023  0.41999041    -0.56800
O374        O  0.24967236  0.59652356  0.53859504    -0.56000
C375        C  0.38303824  0.58810827  0.37603314     0.80800
N376        N  0.42165978  0.60375485  0.37589295    -0.78300
C377        C  0.44121524  0.61137502  0.33553642     0.83300
N378        N  0.42153021  0.60373482  0.62860881    -0.77400
C379        C  0.38292850  0.58808244  0.62858305     0.83300
N380        N  0.36392348  0.58029361  0.33567797    -0.79200
C381        C  0.13304847  0.64632426  0.79454477     0.80800
N382        N  0.17166455  0.63067331  0.79468383    -0.77500
C383        C  0.19121489  0.62305040  0.83504116     0.83300
N384        N  0.17153464  0.63069117  0.87530158    -0.77400
C385        C  0.13293947  0.64634862  0.87532725     0.83300
N386        N  0.11393924  0.65413960  0.83490059    -0.79200
O387        O  0.95325686  0.84180512  0.71336651    -0.57200
C388        C  0.96534047  0.83099637  0.91850002     0.75400
O389        O  0.07370636  0.84813612  0.03866977    -0.58400
C390        C  0.96517027  0.83103449  0.75133070     0.75400
C391        C  0.03288883  0.75766020  0.00207045     0.77800
Cd392      Cd  0.01428401  0.81859078  0.00170845     1.37500
O393        O  0.95197265  0.84051714  0.95679391    -0.57200
O394        O  0.99303287  0.76717107  0.00157354    -0.56000
C395        C  0.09315256  0.85548071  0.66873723     0.77700
O396        O  0.06405380  0.77612946  0.00247948    -0.58400
O397        O  0.00025662  0.81547156  0.91895793    -0.56900
O398        O  0.99867150  0.81426900  0.75059540    -0.56800
O399        O  0.07574548  0.84652555  0.96531791    -0.56000
O400        O  0.12216774  0.64262193  0.71337133    -0.57200
C401        C  0.11009251  0.65343268  0.91850183     0.75400
O402        O  0.50170941  0.63629127  0.70533396    -0.58400
C403        C  0.11025360  0.65339103  0.75133262     0.75400
C404        C  0.04253131  0.72676469  0.00206772     0.77800
Cd405      Cd  0.06113929  0.66583470  0.00170471     1.37500
O406        O  0.12343407  0.64389007  0.95679441    -0.57200
O407        O  0.08238747  0.71725440  0.00160593    -0.56000
C408        C  0.48226497  0.62894732  0.66873401     0.77700
O409        O  0.51136577  0.70829489  0.00243656    -0.58400
O410        O  0.07520089  0.66898123  0.91895984    -0.56900
O411        O  0.57674920  0.67015443  0.75059220    -0.56800
O412        O  0.49967628  0.63790295  0.96531497    -0.56000
C413        C  0.94237597  0.83810213  0.79454127     0.80800
N414        N  0.40375699  0.85374788  0.79467616    -0.77500
C415        C  0.38420463  0.86136833  0.83503147     0.83300
N416        N  0.40388950  0.85372889  0.87529408    -0.77400
C417        C  0.94248915  0.83807867  0.87532332     0.83300
N418        N  0.96149211  0.83028969  0.83489876    -0.79200
C419        C  0.19238504  0.89631449  0.70936121     0.80800
N420        N  0.21150084  0.90412635  0.66900425    -0.77500
C421        C  0.19249497  0.89634017  0.96191217     0.83300
N422        N  0.15388940  0.88069155  0.96194114    -0.77400
C423        C  0.13420300  0.87305284  0.66886836     0.83300
N424        N  0.15375729  0.88067050  0.70922582    -0.79200
O425        O  0.20327238  0.89260277  0.79053433    -0.57200
C426        C  0.21534650  0.90342236  0.91873540     0.75400
O427        O  0.32373492  0.88630516  0.79856211    -0.58400
C428        C  0.21518082  0.90337974  0.75257096     0.75400
C429        C  0.28289025  0.97676213  0.83517697     0.77800
Cd430      Cd  0.26429312  0.91582768  0.83552870     1.37500
O431        O  0.20197234  0.89390606  0.88044132    -0.57200
O432        O  0.24303523  0.96724389  0.83563464    -0.56000
C433        C  0.34315810  0.87894174  0.83516350     0.77700
O434        O  0.31405876  0.95829598  0.83480429    -0.58400
O435        O  0.25027094  0.91894349  0.91827920    -0.56900
O436        O  0.24867918  0.92015053  0.75330935    -0.56800
O437        O  0.32573335  0.88787710  0.87191679    -0.56000
O438        O  0.37213845  0.59182541  0.79053595    -0.57200
C439        C  0.36007792  0.58099780  0.91874221     0.75400
O440        O  0.25169389  0.59812554  0.79857530    -0.58400
C441        C  0.36024244  0.58104084  0.75257772     0.75400
C442        C  0.29252729  0.50765709  0.83518122     0.77800
Cd443      Cd  0.31112732  0.56859080  0.83553915     1.37500
O444        O  0.37344268  0.59052059  0.88044600    -0.57200
O445        O  0.33238186  0.51717450  0.83568272    -0.56000
C446        C  0.23225925  0.60547436  0.83517434     0.77700
O447        O  0.26135940  0.52612324  0.83477232    -0.58400
O448        O  0.32516236  0.56546780  0.91829006    -0.56900
O449        O  0.32675503  0.56426009  0.75332395    -0.56800
O450        O  0.24967208  0.59652352  0.87192831    -0.56000
C451        C  0.38303804  0.58810824  0.70936701     0.80800
N452        N  0.42165998  0.60375486  0.70922641    -0.78300
C453        C  0.44121518  0.61137500  0.66886914     0.83300
N454        N  0.42152979  0.60373466  0.96194141    -0.77400
C455        C  0.38292860  0.58808255  0.96191752     0.83300
N456        N  0.36392323  0.58029353  0.66901132    -0.79200
C457        C  0.63304893  0.14632414  0.12787844     0.80800
N458        N  0.67166451  0.13067336  0.12801673    -0.77500
C459        C  0.69121452  0.12305062  0.16837520     0.83300
N460        N  0.67153449  0.13069136  0.20863436    -0.77400
C461        C  0.63294052  0.14634829  0.20866135     0.83300
N462        N  0.61393872  0.15413986  0.16823326    -0.79200
O463        O  0.45325681  0.34180526  0.04669971    -0.57200
C464        C  0.46533996  0.33099661  0.25183276     0.75400
O465        O  0.57370652  0.34813615  0.37200272    -0.58400
C466        C  0.46517050  0.33103441  0.08466433     0.75400
C467        C  0.53288887  0.25766018  0.33540384     0.77800
Cd468      Cd  0.51428404  0.31859071  0.33504184     1.37500
O469        O  0.45197273  0.34051710  0.29012723    -0.57200
O470        O  0.49303293  0.26717099  0.33490673    -0.56000
C471        C  0.59315278  0.35548092  0.00207058     0.77700
O472        O  0.56405384  0.27612940  0.33581296    -0.58400
O473        O  0.50025698  0.31547147  0.25229138    -0.56900
O474        O  0.49867140  0.31426901  0.08392855    -0.56800
O475        O  0.57574559  0.34652544  0.29865104    -0.56000
O476        O  0.62216772  0.14262194  0.04670467    -0.57200
C477        C  0.61009325  0.15343233  0.25183611     0.75400
O478        O  0.00170928  0.13629132  0.03866723    -0.58400
C479        C  0.61025376  0.15339099  0.08466623     0.75400
C480        C  0.54253137  0.22676468  0.33540105     0.77800
Cd481      Cd  0.56113929  0.16583470  0.33503804     1.37500
O482        O  0.62343411  0.14389016  0.29012734    -0.57200
O483        O  0.58238754  0.21725440  0.33493919    -0.56000
C484        C  0.98226509  0.12894743  0.00206708     0.77700
O485        O  0.01136580  0.20829489  0.33576959    -0.58400
O486        O  0.57520065  0.16898133  0.25229323    -0.56900
O487        O  0.07674909  0.17015448  0.08392554    -0.56800
O488        O  0.99967638  0.13790302  0.29864826    -0.56000
C489        C  0.44237624  0.33810211  0.12787422     0.80800
N490        N  0.90375666  0.35374803  0.12800949    -0.77500
C491        C  0.88420469  0.36136834  0.16836510     0.83300
N492        N  0.90388985  0.35372886  0.20862729    -0.77400
C493        C  0.44248871  0.33807900  0.20865684     0.83300
N494        N  0.46149232  0.33028973  0.16823209    -0.79200
C495        C  0.69238443  0.39631432  0.04269349     0.80800
N496        N  0.71150074  0.40412643  0.00233794    -0.77500
C497        C  0.69249500  0.39634022  0.29524513     0.83300
N498        N  0.65388936  0.38069159  0.29527435    -0.77400
C499        C  0.63420263  0.37305287  0.00220236     0.83300
N500        N  0.65375739  0.38067063  0.04255908    -0.79200
O501        O  0.70327219  0.39260281  0.12386739    -0.57200
C502        C  0.71534583  0.40342224  0.25207055     0.75400
O503        O  0.82373464  0.38630514  0.13189544    -0.58400
C504        C  0.71518133  0.40337996  0.08590534     0.75400
C505        C  0.78289006  0.47676216  0.16851032     0.77800
Cd506      Cd  0.76429302  0.41582769  0.16886207     1.37500
O507        O  0.70197235  0.39390598  0.21377423    -0.57200
O508        O  0.74303520  0.46724393  0.16896808    -0.56000
C509        C  0.84315836  0.37894158  0.16849671     0.77700
O510        O  0.81405868  0.45829592  0.16813740    -0.58400
O511        O  0.75027104  0.41894367  0.25161237    -0.56900
O512        O  0.74867886  0.42015046  0.08664255    -0.56800
O513        O  0.82573341  0.38787717  0.20525022    -0.56000
O514        O  0.87213840  0.09182550  0.12386893    -0.57200
C515        C  0.86007869  0.08099813  0.25207517     0.75400
O516        O  0.75169387  0.09812554  0.13190845    -0.58400
C517        C  0.86024162  0.08104053  0.08591189     0.75400
C518        C  0.79252612  0.00765704  0.16851450     0.77800
Cd519      Cd  0.81112727  0.06859082  0.16887240     1.37500
O520        O  0.87344250  0.09052049  0.21377938    -0.57200
O521        O  0.83238215  0.01717463  0.16901574    -0.56000
C522        C  0.73225975  0.10547423  0.16850806     0.77700
O523        O  0.76135951  0.02612313  0.16810567    -0.58400
O524        O  0.82516211  0.06546761  0.25162327    -0.56900
O525        O  0.82675544  0.06426021  0.08665698    -0.56800
O526        O  0.74967202  0.09652368  0.20526142    -0.56000
C527        C  0.88303809  0.08810831  0.04269995     0.80800
N528        N  0.92165986  0.10375491  0.04255949    -0.78300
C529        C  0.94121524  0.11137505  0.00220325     0.83300
N530        N  0.92152950  0.10373453  0.29527500    -0.77400
C531        C  0.88292925  0.08808270  0.29525026     0.83300
N532        N  0.86392337  0.08029362  0.00234431    -0.79200
C533        C  0.63304870  0.14632423  0.46121127     0.80800
N534        N  0.67166451  0.13067336  0.46135073    -0.77500
C535        C  0.69121520  0.12305020  0.50170735     0.83300
N536        N  0.67153459  0.13069131  0.54196854    -0.77400
C537        C  0.63293945  0.14634877  0.54199401     0.83300
N538        N  0.61393907  0.15413962  0.50156736    -0.79200
O539        O  0.45325692  0.34180518  0.38003253    -0.57200
C540        C  0.46533967  0.33099679  0.58516635     0.75400
O541        O  0.57370662  0.34813612  0.70533645    -0.58400
C542        C  0.46517027  0.33103436  0.41799867     0.75400
C543        C  0.53288891  0.25765919  0.66873723     0.77800
Cd544      Cd  0.51428401  0.31859073  0.66837526     1.37500
O545        O  0.45197279  0.34051716  0.62346052    -0.57200
O546        O  0.49303264  0.26717119  0.66824027    -0.56000
C547        C  0.59315172  0.35548039  0.33540537     0.77700
O548        O  0.56405394  0.27612966  0.66914620    -0.58400
O549        O  0.50025696  0.31547137  0.58562486    -0.56900
O550        O  0.49867160  0.31426886  0.41726169    -0.56800
O551        O  0.57574577  0.34652565  0.63198503    -0.56000
O552        O  0.62216767  0.14262183  0.38003815    -0.57200
C553        C  0.61009310  0.15343261  0.58516805     0.75400
O554        O  0.00170922  0.13629132  0.37200050    -0.58400
C555        C  0.61025392  0.15339086  0.41799905     0.75400
C556        C  0.54253107  0.22676485  0.66873441     0.77800
Cd557      Cd  0.56113926  0.16583468  0.66837140     1.37500
O558        O  0.62343414  0.14389006  0.62346131    -0.57200
O559        O  0.58238749  0.21725436  0.66827253    -0.56000
C560        C  0.98226544  0.12894769  0.33540033     0.77700
O561        O  0.01136577  0.20829487  0.66910317    -0.58400
O562        O  0.57520067  0.16898128  0.58562677    -0.56900
O563        O  0.07674912  0.17015452  0.41725881    -0.56800
O564        O  0.99967624  0.13790287  0.63198170    -0.56000
C565        C  0.44237646  0.33810197  0.46120776     0.80800
N566        N  0.90375643  0.35374802  0.46134268    -0.77500
C567        C  0.88420487  0.36136814  0.50169840     0.83300
N568        N  0.90388966  0.35372884  0.54196071    -0.77400
C569        C  0.44248854  0.33807904  0.54199036     0.83300
N570        N  0.46149240  0.33028961  0.50156506    -0.79200
C571        C  0.69238357  0.39631402  0.37602827     0.80800
N572        N  0.71150107  0.40412665  0.33567050    -0.77500
C573        C  0.69249488  0.39634009  0.62857846     0.83300
N574        N  0.65388942  0.38069154  0.62860843    -0.77400
C575        C  0.63420292  0.37305299  0.33553636     0.83300
N576        N  0.65375768  0.38067081  0.37589194    -0.79200
O577        O  0.70327239  0.39260294  0.45720041    -0.57200
C578        C  0.71534677  0.40342249  0.58540247     0.75400
O579        O  0.82373447  0.38630506  0.46522868    -0.58400
C580        C  0.71517975  0.40337911  0.41923911     0.75400
C581        C  0.78288951  0.47676094  0.50184358     0.77800
Cd582      Cd  0.76429304  0.41582764  0.50219542     1.37500
O583        O  0.70197220  0.39390595  0.54710803    -0.57200
O584        O  0.74303565  0.46724412  0.50230140    -0.56000
C585        C  0.84315862  0.37894138  0.50182982     0.77700
O586        O  0.81405861  0.45829618  0.50147074    -0.58400
O587        O  0.75027072  0.41894347  0.58494588    -0.56900
O588        O  0.74867943  0.42015075  0.41997601    -0.56800
O589        O  0.82573320  0.38787725  0.53858361    -0.56000
O590        O  0.87213848  0.09182559  0.45720258    -0.57200
C591        C  0.86007714  0.08099729  0.58540911     0.75400
O592        O  0.75169389  0.09812542  0.46524182    -0.58400
C593        C  0.86024125  0.08104033  0.41924494     0.75400
C594        C  0.79252716  0.00765761  0.50184772     0.77800
Cd595      Cd  0.81112733  0.06859083  0.50220572     1.37500
O596        O  0.87344275  0.09052056  0.54711247    -0.57200
O597        O  0.83238176  0.01717444  0.50234907    -0.56000
C598        C  0.73225822  0.10547489  0.50184038     0.77700
O599        O  0.76135953  0.02612296  0.50143900    -0.58400
O600        O  0.82516273  0.06546783  0.58495670    -0.56900
O601        O  0.82675562  0.06426031  0.41999042    -0.56800
O602        O  0.74967259  0.09652352  0.53859522    -0.56000
C603        C  0.88303767  0.08810816  0.37603321     0.80800
N604        N  0.92166027  0.10375506  0.37589291    -0.78300
C605        C  0.94121529  0.11137525  0.33553640     0.83300
N606        N  0.92153031  0.10373482  0.62860877    -0.77400
C607        C  0.88292841  0.08808237  0.62858350     0.83300
N608        N  0.86392322  0.08029363  0.33567817    -0.79200
C609        C  0.63304846  0.14632429  0.79454515     0.80800
N610        N  0.67166468  0.13067320  0.79468385    -0.77500
C611        C  0.69121514  0.12305012  0.83504110     0.83300
N612        N  0.67153442  0.13069129  0.87530165    -0.77400
C613        C  0.63293962  0.14634861  0.87532785     0.83300
N614        N  0.61393910  0.15413957  0.83490022    -0.79200
O615        O  0.45325680  0.34180514  0.71336636    -0.57200
C616        C  0.46533993  0.33099667  0.91849997     0.75400
O617        O  0.57370601  0.34813601  0.03866985    -0.58400
C618        C  0.46517035  0.33103435  0.75133110     0.75400
C619        C  0.53288958  0.25765995  0.00207059     0.77800
Cd620      Cd  0.51428396  0.31859076  0.00170847     1.37500
O621        O  0.45197273  0.34051720  0.95679384    -0.57200
O622        O  0.49303264  0.26717111  0.00157378    -0.56000
C623        C  0.59315102  0.35548012  0.66873721     0.77700
O624        O  0.56405362  0.27612943  0.00247940    -0.58400
O625        O  0.50025659  0.31547135  0.91895798    -0.56900
O626        O  0.49867139  0.31426904  0.75059541    -0.56800
O627        O  0.57574535  0.34652534  0.96531783    -0.56000
O628        O  0.62216773  0.14262179  0.71337141    -0.57200
C629        C  0.61009372  0.15343223  0.91850140     0.75400
O630        O  0.00170901  0.13629115  0.70533367    -0.58400
C631        C  0.61025315  0.15339123  0.75133233     0.75400
C632        C  0.54253134  0.22676605  0.00206779     0.77800
Cd633      Cd  0.56113918  0.16583478  0.00170470     1.37500
O634        O  0.62343399  0.14389021  0.95679459    -0.57200
O635        O  0.58238759  0.21725423  0.00160590    -0.56000
C636        C  0.98226652  0.12894798  0.66873411     0.77700
O637        O  0.01136534  0.20829464  0.00243655    -0.58400
O638        O  0.57520036  0.16898136  0.91895999    -0.56900
O639        O  0.07674950  0.17015435  0.75059225    -0.56800
O640        O  0.99967622  0.13790307  0.96531491    -0.56000
C641        C  0.44237638  0.33810193  0.79454109     0.80800
N642        N  0.90375696  0.35374788  0.79467613    -0.77500
C643        C  0.88420379  0.36136865  0.83503148     0.83300
N644        N  0.90389004  0.35372879  0.87529405    -0.77400
C645        C  0.44248886  0.33807894  0.87532351     0.83300
N646        N  0.46149210  0.33028970  0.83489870    -0.79200
C647        C  0.69238433  0.39631416  0.70936141     0.80800
N648        N  0.71150083  0.40412647  0.66900416    -0.77500
C649        C  0.69249540  0.39634038  0.96191200     0.83300
N650        N  0.65388922  0.38069153  0.96194119    -0.77400
C651        C  0.63420288  0.37305295  0.66886817     0.83300
N652        N  0.65375775  0.38067074  0.70922589    -0.79200
O653        O  0.70327230  0.39260288  0.79053437    -0.57200
C654        C  0.71534638  0.40342234  0.91873542     0.75400
O655        O  0.82373450  0.38630518  0.79856200    -0.58400
C656        C  0.71518010  0.40337936  0.75257090     0.75400
C657        C  0.78289006  0.47676107  0.83517695     0.77800
Cd658      Cd  0.76429300  0.41582769  0.83552873     1.37500
O659        O  0.70197227  0.39390598  0.88044133    -0.57200
O660        O  0.74303546  0.46724417  0.83563460    -0.56000
C661        C  0.84315908  0.37894130  0.83516343     0.77700
O662        O  0.81405841  0.45829627  0.83480428    -0.58400
O663        O  0.75027067  0.41894363  0.91827912    -0.56900
O664        O  0.74867936  0.42015060  0.75330938    -0.56800
O665        O  0.82573320  0.38787736  0.87191693    -0.56000
O666        O  0.87213850  0.09182555  0.79053596    -0.57200
C667        C  0.86007753  0.08099767  0.91874208     0.75400
O668        O  0.75169420  0.09812542  0.79857512    -0.58400
C669        C  0.86024219  0.08104064  0.75257777     0.75400
C670        C  0.79252705  0.00765800  0.83518121     0.77800
Cd671      Cd  0.81112737  0.06859085  0.83553913     1.37500
O672        O  0.87344275  0.09052063  0.88044599    -0.57200
O673        O  0.83238164  0.01717436  0.83568272    -0.56000
C674        C  0.73225821  0.10547487  0.83517425     0.77700
O675        O  0.76135964  0.02612296  0.83477232    -0.58400
O676        O  0.82516262  0.06546785  0.91829005    -0.56900
O677        O  0.82675537  0.06426015  0.75332396    -0.56800
O678        O  0.74967245  0.09652351  0.87192848    -0.56000
C679        C  0.88303786  0.08810810  0.70936702     0.80800
N680        N  0.92166009  0.10375497  0.70922626    -0.78300
C681        C  0.94121475  0.11137486  0.66886916     0.83300
N682        N  0.92153015  0.10373483  0.96194158    -0.77400
C683        C  0.88292812  0.08808232  0.96191747     0.83300
N684        N  0.86392354  0.08029360  0.66901118    -0.79200
C685        C  0.63304839  0.64632434  0.12787858     0.80800
N686        N  0.67166466  0.63067326  0.12801681    -0.77500
C687        C  0.69121508  0.62305023  0.16837524     0.83300
N688        N  0.67153482  0.63069125  0.20863437    -0.77400
C689        C  0.63293976  0.64634868  0.20866112     0.83300
N690        N  0.61393918  0.65413961  0.16823325    -0.79200
O691        O  0.45325691  0.84180523  0.04669954    -0.57200
C692        C  0.46533943  0.83099696  0.25183278     0.75400
O693        O  0.57370645  0.84813624  0.37200261    -0.58400
C694        C  0.46516963  0.83103467  0.08466496     0.75400
C695        C  0.53288886  0.75765917  0.33540384     0.77800
Cd696      Cd  0.51428402  0.81859073  0.33504179     1.37500
O697        O  0.45197284  0.84051722  0.29012704    -0.57200
O698        O  0.49303260  0.76717118  0.33490673    -0.56000
C699        C  0.59315236  0.85548069  0.00207045     0.77700
O700        O  0.56405390  0.77612964  0.33581295    -0.58400
O701        O  0.50025692  0.81547133  0.25229138    -0.56900
O702        O  0.49867164  0.81426891  0.08392844    -0.56800
O703        O  0.57574546  0.84652535  0.29865096    -0.56000
O704        O  0.62216785  0.64262186  0.04670468    -0.57200
C705        C  0.61009267  0.65343259  0.25183637     0.75400
O706        O  0.00170903  0.63629115  0.03866697    -0.58400
C707        C  0.61025367  0.65339100  0.08466603     0.75400
C708        C  0.54253102  0.72676482  0.33540106     0.77800
Cd709      Cd  0.56113926  0.66583466  0.33503803     1.37500
O710        O  0.62343420  0.64389022  0.29012736    -0.57200
O711        O  0.58238745  0.71725434  0.33493921    -0.56000
C712        C  0.98226616  0.62894788  0.00206726     0.77700
O713        O  0.01136573  0.70829485  0.33576960    -0.58400
O714        O  0.57520090  0.66898121  0.25229313    -0.56900
O715        O  0.07674911  0.67015446  0.08392544    -0.56800
O716        O  0.99967611  0.63790279  0.29864850    -0.56000
C717        C  0.44237655  0.83810192  0.12787326     0.80800
N718        N  0.90375699  0.85374789  0.12800995    -0.77500
C719        C  0.88420335  0.86136891  0.16836448     0.83300
N720        N  0.90389019  0.85372873  0.20862726    -0.77400
C721        C  0.44248921  0.83807887  0.20865761     0.83300
N722        N  0.46149206  0.83028983  0.16823193    -0.79200
C723        C  0.69238371  0.89631401  0.04269409     0.80800
N724        N  0.71150111  0.90412658  0.00233757    -0.77500
C725        C  0.69249522  0.89634022  0.29524504     0.83300
N726        N  0.65388970  0.88069175  0.29527431    -0.77400
C727        C  0.63420277  0.87305291  0.00220229     0.83300
N728        N  0.65375782  0.88067084  0.04255908    -0.79200
O729        O  0.70327226  0.89260283  0.12386737    -0.57200
C730        C  0.71534586  0.90342216  0.25207077     0.75400
O731        O  0.82373453  0.88630519  0.13189536    -0.58400
C732        C  0.71518009  0.90337934  0.08590510     0.75400
C733        C  0.78288932  0.97676117  0.16851032     0.77800
Cd734      Cd  0.76429299  0.91582766  0.16886211     1.37500
O735        O  0.70197219  0.89390593  0.21377418    -0.57200
O736        O  0.74303575  0.96724416  0.16896806    -0.56000
C737        C  0.84315937  0.87894110  0.16849654     0.77700
O738        O  0.81405864  0.95829614  0.16813741    -0.58400
O739        O  0.75027104  0.91894364  0.25161231    -0.56900
O740        O  0.74867931  0.92015067  0.08664277    -0.56800
O741        O  0.82573304  0.88787729  0.20525038    -0.56000
O742        O  0.87213858  0.59182555  0.12386906    -0.57200
C743        C  0.86007749  0.58099765  0.25207524     0.75400
O744        O  0.75169435  0.59812536  0.13190822    -0.58400
C745        C  0.86024160  0.58104046  0.08591177     0.75400
C746        C  0.79252678  0.50765766  0.16851451     0.77800
Cd747      Cd  0.81112739  0.56859084  0.16887239     1.37500
O748        O  0.87344271  0.59052056  0.21377931    -0.57200
O749        O  0.83238178  0.51717443  0.16901574    -0.56000
C750        C  0.73225803  0.60547497  0.16850810     0.77700
O751        O  0.76135962  0.52612299  0.16810566    -0.58400
O752        O  0.82516259  0.56546781  0.25162332    -0.56900
O753        O  0.82675558  0.56426025  0.08665710    -0.56800
O754        O  0.74967254  0.59652347  0.20526170    -0.56000
C755        C  0.88303808  0.58810826  0.04270013     0.80800
N756        N  0.92165998  0.60375492  0.04255937    -0.78300
C757        C  0.94121537  0.61137519  0.00220341     0.83300
N758        N  0.92153001  0.60373471  0.29527515    -0.77400
C759        C  0.88292841  0.58808247  0.29525041     0.83300
N760        N  0.86392344  0.58029372  0.00234426    -0.79200
C761        C  0.63304828  0.64632442  0.46121175     0.80800
N762        N  0.67166470  0.63067314  0.46135068    -0.77500
C763        C  0.69121496  0.62305023  0.50170749     0.83300
N764        N  0.67153474  0.63069121  0.54196845    -0.77400
C765        C  0.63293915  0.64634874  0.54199392     0.83300
N766        N  0.61393933  0.65413953  0.50156724    -0.79200
O767        O  0.45325687  0.84180518  0.38003255    -0.57200
C768        C  0.46534019  0.83099656  0.58516638     0.75400
O769        O  0.57370623  0.84813599  0.70533667    -0.58400
C770        C  0.46517025  0.83103422  0.41799859     0.75400
C771        C  0.53288822  0.75765986  0.66873723     0.77800
Cd772      Cd  0.51428400  0.81859071  0.66837524     1.37500
O773        O  0.45197268  0.84051715  0.62346057    -0.57200
O774        O  0.49303300  0.76717097  0.66824030    -0.56000
C775        C  0.59315181  0.85548061  0.33540581     0.77700
O776        O  0.56405387  0.77612950  0.66914624    -0.58400
O777        O  0.50025664  0.81547143  0.58562472    -0.56900
O778        O  0.49867154  0.81426901  0.41726183    -0.56800
O779        O  0.57574555  0.84652539  0.63198478    -0.56000
O780        O  0.62216763  0.64262178  0.38003819    -0.57200
C781        C  0.61009322  0.65343236  0.58516865     0.75400
O782        O  0.00170901  0.63629114  0.37200042    -0.58400
C783        C  0.61025347  0.65339100  0.41799851     0.75400
C784        C  0.54253010  0.72676575  0.66873442     0.77800
Cd785      Cd  0.56113921  0.66583472  0.66837143     1.37500
O786        O  0.62343408  0.64389021  0.62346121    -0.57200
O787        O  0.58238788  0.71725418  0.66827253    -0.56000
C788        C  0.98226640  0.62894793  0.33540004     0.77700
O789        O  0.01136565  0.70829472  0.66910317    -0.58400
O790        O  0.57520060  0.66898129  0.58562667    -0.56900
O791        O  0.07674937  0.67015440  0.41725889    -0.56800
O792        O  0.99967636  0.63790309  0.63198152    -0.56000
C793        C  0.44237677  0.83810174  0.46120800     0.80800
N794        N  0.90375661  0.85374806  0.46134269    -0.77500
C795        C  0.88420434  0.86136840  0.50169839     0.83300
N796        N  0.90388959  0.85372890  0.54196071    -0.77400
C797        C  0.44248939  0.83807874  0.54199018     0.83300
N798        N  0.46149193  0.83028981  0.50156501    -0.79200
C799        C  0.69238444  0.89631438  0.37602799     0.80800
N800        N  0.71150075  0.90412646  0.33567076    -0.77500
C801        C  0.69249562  0.89634030  0.62857821     0.83300
N802        N  0.65388920  0.88069135  0.62860828    -0.77400
C803        C  0.63420250  0.87305284  0.33553662     0.83300
N804        N  0.65375734  0.88067067  0.37589176    -0.79200
O805        O  0.70327215  0.89260295  0.45720058    -0.57200
C806        C  0.71534581  0.90342208  0.58540369     0.75400
O807        O  0.82373449  0.88630512  0.46522868    -0.58400
C808        C  0.71518103  0.90337985  0.41923907     0.75400
C809        C  0.78289028  0.97676170  0.50184357     0.77800
Cd810      Cd  0.76429301  0.91582773  0.50219536     1.37500
O811        O  0.70197236  0.89390597  0.54710766    -0.57200
O812        O  0.74303525  0.96724398  0.50230141    -0.56000
C813        C  0.84315886  0.87894133  0.50182976     0.77700
O814        O  0.81405859  0.95829613  0.50147073    -0.58400
O815        O  0.75027109  0.91894366  0.58494571    -0.56900
O816        O  0.74867890  0.92015047  0.41997581    -0.56800
O817        O  0.82573320  0.88787733  0.53858359    -0.56000
O818        O  0.87213852  0.59182555  0.45720239    -0.57200
C819        C  0.86007797  0.58099776  0.58540940     0.75400
O820        O  0.75169409  0.59812543  0.46524177    -0.58400
C821        C  0.86024145  0.58104036  0.41924507     0.75400
C822        C  0.79252684  0.50765823  0.50184772     0.77800
Cd823      Cd  0.81112736  0.56859085  0.50220572     1.37500
O824        O  0.87344268  0.59052066  0.54711252    -0.57200
O825        O  0.83238176  0.51717439  0.50234908    -0.56000
C826        C  0.73225823  0.60547485  0.50184063     0.77700
O827        O  0.76135968  0.52612291  0.50143902    -0.58400
O828        O  0.82516243  0.56546768  0.58495648    -0.56900
O829        O  0.82675555  0.56426023  0.41999041    -0.56800
O830        O  0.74967249  0.59652344  0.53859516    -0.56000
C831        C  0.88303824  0.58810827  0.37603314     0.80800
N832        N  0.92165979  0.60375485  0.37589295    -0.78300
C833        C  0.94121525  0.61137502  0.33553642     0.83300
N834        N  0.92153022  0.60373482  0.62860881    -0.77400
C835        C  0.88292851  0.58808244  0.62858305     0.83300
N836        N  0.86392348  0.58029361  0.33567797    -0.79200
C837        C  0.63304847  0.64632426  0.79454477     0.80800
N838        N  0.67166456  0.63067331  0.79468383    -0.77500
C839        C  0.69121489  0.62305040  0.83504116     0.83300
N840        N  0.67153464  0.63069117  0.87530158    -0.77400
C841        C  0.63293947  0.64634862  0.87532725     0.83300
N842        N  0.61393925  0.65413960  0.83490059    -0.79200
O843        O  0.45325686  0.84180512  0.71336651    -0.57200
C844        C  0.46534048  0.83099636  0.91850003     0.75400
O845        O  0.57370636  0.84813612  0.03866977    -0.58400
C846        C  0.46517027  0.83103449  0.75133069     0.75400
C847        C  0.53288883  0.75766021  0.00207057     0.77800
Cd848      Cd  0.51428401  0.81859078  0.00170846     1.37500
O849        O  0.45197264  0.84051713  0.95679391    -0.57200
O850        O  0.49303288  0.76717106  0.00157375    -0.56000
C851        C  0.59315246  0.85548066  0.66873720     0.77700
O852        O  0.56405380  0.77612946  0.00247939    -0.58400
O853        O  0.50025660  0.81547155  0.91895793    -0.56900
O854        O  0.49867149  0.81426900  0.75059540    -0.56800
O855        O  0.57574548  0.84652555  0.96531792    -0.56000
O856        O  0.62216775  0.64262193  0.71337133    -0.57200
C857        C  0.61009252  0.65343268  0.91850184     0.75400
O858        O  0.00170942  0.63629127  0.70533397    -0.58400
C859        C  0.61025361  0.65339103  0.75133262     0.75400
C860        C  0.54253131  0.72676469  0.00206780     0.77800
Cd861      Cd  0.56113929  0.66583470  0.00170470     1.37500
O862        O  0.62343407  0.64389007  0.95679441    -0.57200
O863        O  0.58238748  0.71725440  0.00160591    -0.56000
C864        C  0.98226496  0.62894732  0.66873401     0.77700
O865        O  0.01136576  0.70829489  0.00243656    -0.58400
O866        O  0.57520090  0.66898123  0.91895984    -0.56900
O867        O  0.07674919  0.67015443  0.75059220    -0.56800
O868        O  0.99967628  0.63790295  0.96531497    -0.56000
C869        C  0.44237597  0.83810212  0.79454126     0.80800
N870        N  0.90375700  0.85374788  0.79467616    -0.77500
C871        C  0.88420463  0.86136833  0.83503146     0.83300
N872        N  0.90388951  0.85372889  0.87529408    -0.77400
C873        C  0.44248915  0.83807867  0.87532332     0.83300
N874        N  0.46149210  0.83028969  0.83489876    -0.79200
C875        C  0.69238481  0.89631438  0.70936108     0.80800
N876        N  0.71150085  0.90412642  0.66900430    -0.77500
C877        C  0.69249498  0.89634017  0.96191217     0.83300
N878        N  0.65388940  0.88069155  0.96194115    -0.77400
C879        C  0.63420320  0.87305295  0.66886841     0.83300
N880        N  0.65375732  0.88067057  0.70922584    -0.79200
O881        O  0.70327241  0.89260283  0.79053423    -0.57200
C882        C  0.71534650  0.90342236  0.91873539     0.75400
O883        O  0.82373492  0.88630516  0.79856211    -0.58400
C884        C  0.71518063  0.90337965  0.75257116     0.75400
C885        C  0.78289025  0.97676213  0.83517697     0.77800
Cd886      Cd  0.76429312  0.91582768  0.83552870     1.37500
O887        O  0.70197234  0.89390606  0.88044132    -0.57200
O888        O  0.74303524  0.96724388  0.83563464    -0.56000
C889        C  0.84315811  0.87894174  0.83516350     0.77700
O890        O  0.81405877  0.95829598  0.83480430    -0.58400
O891        O  0.75027094  0.91894349  0.91827920    -0.56900
O892        O  0.74867927  0.92015060  0.75330934    -0.56800
O893        O  0.82573336  0.88787710  0.87191679    -0.56000
O894        O  0.87213845  0.59182541  0.79053595    -0.57200
C895        C  0.86007792  0.58099780  0.91874221     0.75400
O896        O  0.75169389  0.59812554  0.79857530    -0.58400
C897        C  0.86024244  0.58104084  0.75257772     0.75400
C898        C  0.79252713  0.50765706  0.83518121     0.77800
Cd899      Cd  0.81112732  0.56859080  0.83553915     1.37500
O900        O  0.87344268  0.59052059  0.88044600    -0.57200
O901        O  0.83238189  0.51717449  0.83568272    -0.56000
C902        C  0.73225926  0.60547436  0.83517434     0.77700
O903        O  0.76135937  0.52612319  0.83477232    -0.58400
O904        O  0.82516237  0.56546780  0.91829006    -0.56900
O905        O  0.82675504  0.56426009  0.75332395    -0.56800
O906        O  0.74967209  0.59652352  0.87192831    -0.56000
C907        C  0.88303804  0.58810824  0.70936701     0.80800
N908        N  0.92165998  0.60375486  0.70922641    -0.78300
C909        C  0.94121518  0.61137500  0.66886914     0.83300
N910        N  0.92152979  0.60373466  0.96194142    -0.77400
C911        C  0.88292860  0.58808255  0.96191751     0.83300
N912        N  0.86392324  0.58029353  0.66901132    -0.79200
loop_ 
_geom_bond_atom_site_label_1 
_geom_bond_atom_site_label_2 
_geom_bond_distance 
_geom_bond_site_symmetry_2 
_ccdc_geom_bond_type 
C1            N2   1.359       .  A
C1            N6   1.357       .  A
C1           C23   1.469       .  S
N2            C3   1.361       .  A
C3            N4   1.360       .  A
C3           C66   1.468       .  S
N4            C5   1.358       .  A
C5            N6   1.357       .  A
C5           C21   1.469       .  S
O7           C10   1.267       .  A
O7         Cd164   2.486   1_655  S
C8           C37   1.469       .  S
C8           O17   1.264   1_655  A
C8           O13   1.266       .  A
O9           C91   1.262       .  A
O9          Cd12   2.484       .  S
C10          C33   1.469       .  S
C10          O18   1.265       .  A
C11          C24   1.465       .  S
C11          O16   1.263       .  A
C11          O14   1.264   1_455  A
Cd12         O19   2.480       .  S
Cd12         O17   2.456       .  S
Cd12         O13   2.487   1_455  S
Cd12         O16   2.467       .  S
Cd12         O14   2.472   1_455  S
Cd12         O83   2.486   1_455  S
Cd12         O94   2.453   1_455  S
C15          C43   1.468       .  S
C15         O161   1.262       .  A
C15         O171   1.262   1_554  A
O18        Cd164   2.453   1_655  S
O19          C91   1.262       .  A
O20          C23   1.267       .  A
O20        Cd177   2.486       .  S
C21          O30   1.264       .  A
C21          O26   1.266       .  A
O22          C28   1.262       .  A
O22        Cd633   2.484       .  S
C23         O487   1.265       .  A
C24          O27   1.264       .  A
C24         O485   1.263       .  A
Cd25         O30   2.456       .  S
Cd25         O26   2.487       .  S
Cd25         O27   2.472       .  S
Cd25         O96   2.486       .  S
Cd25        O554   2.484       .  S
Cd25        O488   2.480   1_455  S
Cd25        O563   2.453       .  S
Cd25        O485   2.467       .  S
C28          C73   1.468       .  S
C28         O184   1.262   1_554  A
O29         C480   1.263       .  A
O29        Cd481   2.467       .  S
O31         C479   1.265       .  A
O31        Cd633   2.453       .  S
O32         C104   1.262       .  A
O32        Cd481   2.480       .  S
C33          N38   1.357       .  A
C33         N490   1.359       .  A
N34          C35   1.360       .  A
N34         C489   1.359       .  A
C35          N36   1.360       .  A
C35          C53   1.468       .  S
N36         C493   1.358       .  A
C37          N38   1.357       .  A
C37         N492   1.358       .  A
C39          N40   1.357       .  A
C39          N44   1.359       .  A
C39          C48   1.469       .  S
N40         C193   1.357   1_554  A
C41          N42   1.358       .  A
C41         N116   1.357       .  A
C41          C46   1.469       .  S
N42         C119   1.360       .  A
C43          N44   1.361       .  A
C43         N194   1.360   1_554  A
O45          C48   1.267       .  A
O45         Cd50   2.486       .  S
C46          O55   1.264       .  A
C46          O51   1.266       .  A
O47          C53   1.262       .  A
O47         Cd50   2.484       .  S
C48          O56   1.265       .  A
C49         C290   1.464       .  S
C49          O54   1.263       .  A
C49          O52   1.264       .  A
Cd50         O57   2.480       .  S
Cd50         O56   2.453       .  S
Cd50         O55   2.456       .  S
Cd50         O51   2.487       .  S
Cd50         O54   2.467       .  S
Cd50         O52   2.472       .  S
C53          O57   1.262       .  A
O58          C61   1.267       .  A
O58         Cd63   2.486       .  S
C59          C75   1.469       .  S
C59          O68   1.264       .  A
C59          O64   1.266       .  A
O60          C66   1.262       .  A
O60         Cd63   2.484       .  S
C61          C71   1.469       .  S
C61          O69   1.265       .  A
C62         C277   1.464   1_545  S
C62          O67   1.263       .  A
C62          O65   1.264       .  A
Cd63         O70   2.480       .  S
Cd63         O69   2.453       .  S
Cd63         O68   2.456       .  S
Cd63         O64   2.487       .  S
Cd63         O67   2.467       .  S
Cd63         O65   2.472       .  S
C66          O70   1.262       .  A
C71          N72   1.359       .  A
C71          N76   1.357       .  A
N72          C73   1.360       .  A
C73         N226   1.360   1_554  A
N74          C75   1.358       .  A
N74         C149   1.360       .  A
C75         N152   1.357       .  A
N76         C227   1.357   1_554  A
C77          N78   1.359       .  A
C77          N82   1.357       .  A
C77          C99   1.469       .  S
N78          C79   1.360       .  A
C79          N80   1.360       .  A
C79         C142   1.468       .  S
N80          C81   1.358       .  A
C81          N82   1.357       .  A
C81          C97   1.469       .  S
O83          C86   1.267       .  A
C84         C113   1.469       .  S
C84          O93   1.264   1_655  A
C84          O89   1.266       .  A
O85         C167   1.262       .  A
O85         Cd88   2.484       .  S
C86         C109   1.469       .  S
C86          O94   1.265       .  A
C87         C100   1.464       .  S
C87          O92   1.263       .  A
C87          O90   1.264   1_455  A
Cd88        O159   2.486   1_455  S
Cd88         O95   2.480       .  S
Cd88        O170   2.453   1_455  S
Cd88         O93   2.456       .  S
Cd88         O89   2.487   1_455  S
Cd88         O92   2.467       .  S
Cd88         O90   2.472   1_455  S
C91         C119   1.468       .  S
O95         C167   1.262       .  A
O96          C99   1.267       .  A
C97         O106   1.264       .  A
C97         O102   1.266       .  A
O98         C104   1.262       .  A
O98        Cd481   2.484       .  S
C99         O563   1.265       .  A
C100        O561   1.263       .  A
C100        O103   1.264       .  A
Cd101       O172   2.486       .  S
Cd101       O630   2.484       .  S
Cd101       O564   2.480   1_455  S
Cd101       O639   2.453       .  S
Cd101       O106   2.456       .  S
Cd101       O102   2.487       .  S
Cd101       O561   2.467       .  S
Cd101       O103   2.472       .  S
C104        C149   1.468       .  S
O105        C556   1.263       .  A
O105       Cd557   2.467       .  S
O107        C555   1.265       .  A
O107       Cd481   2.453       .  S
O108        C180   1.262       .  A
O108       Cd557   2.480       .  S
C109        N566   1.359       .  A
C109        N114   1.357       .  A
N110        C565   1.359       .  A
N110        C111   1.360       .  A
C111        N112   1.360       .  A
C111        C129   1.468       .  S
N112        C569   1.358       .  A
C113        N568   1.358       .  A
C113        N114   1.357       .  A
C115        N116   1.357       .  A
C115        N120   1.359       .  A
C115        C124   1.469       .  S
C117        N192   1.357       .  A
C117        N118   1.358       .  A
C117        C122   1.469       .  S
N118        C195   1.360       .  A
C119        N120   1.360       .  A
O121        C124   1.266       .  A
O121       Cd126   2.486       .  S
C122        O131   1.264       .  A
C122        O127   1.266       .  A
O123        C129   1.262       .  A
O123       Cd126   2.484       .  S
C124        O132   1.265       .  A
C125        C366   1.465       .  S
C125        O130   1.263       .  A
C125        O128   1.264       .  A
Cd126       O133   2.480       .  S
Cd126       O132   2.453       .  S
Cd126       O131   2.456       .  S
Cd126       O127   2.487       .  S
Cd126       O130   2.467       .  S
Cd126       O128   2.472       .  S
C129        O133   1.262       .  A
O134        C137   1.267       .  A
O134       Cd139   2.486       .  S
C135        C151   1.469       .  S
C135        O144   1.264       .  A
C135        O140   1.266       .  A
O136        C142   1.262       .  A
O136       Cd139   2.484       .  S
C137        C147   1.469       .  S
C137        O145   1.265       .  A
C138        C353   1.464   1_545  S
C138        O143   1.263       .  A
C138        O141   1.264       .  A
Cd139       O146   2.480       .  S
Cd139       O145   2.453       .  S
Cd139       O144   2.456       .  S
Cd139       O140   2.487       .  S
Cd139       O143   2.467       .  S
Cd139       O141   2.472       .  S
C142        O146   1.262       .  A
C147        N148   1.359       .  A
C147        N152   1.357       .  A
N148        C149   1.360       .  A
N150        C225   1.360       .  A
N150        C151   1.358       .  A
C151        N228   1.357       .  A
C153        N154   1.359       .  A
C153        N158   1.357       .  A
C153        C175   1.469       .  S
N154        C155   1.360       .  A
C155        N156   1.360       .  A
C155        C218   1.468       .  S
N156        C157   1.358       .  A
C157        N158   1.357       .  A
C157        C173   1.469       .  S
O159        C162   1.267       .  A
C160        C189   1.469       .  S
C160        O169   1.264   1_655  A
C160        O165   1.266       .  A
O161       Cd164   2.484       .  S
C162        C185   1.469       .  S
C162        O170   1.265       .  A
C163        C176   1.464       .  S
C163        O168   1.263       .  A
C163        O166   1.264   1_455  A
Cd164       O171   2.480   1_554  S
Cd164       O169   2.456   1_554  S
Cd164       O165   2.487   1_454  S
Cd164       O168   2.467       .  S
Cd164       O166   2.472   1_455  S
C167        C195   1.468       .  S
O172        C175   1.267       .  A
C173        O182   1.264       .  A
C173        O178   1.266       .  A
O174        C180   1.262       .  A
O174       Cd557   2.484       .  S
C175        O639   1.265       .  A
C176        O637   1.263       .  A
C176        O179   1.264       .  A
Cd177       O478   2.484       .  S
Cd177       O640   2.480   1_454  S
Cd177       O487   2.453       .  S
Cd177       O182   2.456   1_554  S
Cd177       O178   2.487   1_554  S
Cd177       O637   2.467       .  S
Cd177       O179   2.472       .  S
C180        C225   1.468       .  S
O181        C632   1.263       .  A
O181       Cd633   2.467       .  S
O183        C631   1.265       .  A
O183       Cd557   2.453       .  S
O184       Cd633   2.480   1_556  S
C185        N642   1.359       .  A
C185        N190   1.357       .  A
N186        C641   1.359       .  A
N186        C187   1.361       .  A
C187        N188   1.360       .  A
C187        C205   1.468       .  S
N188        C645   1.358       .  A
C189        N644   1.358       .  A
C189        N190   1.357       .  A
C191        N192   1.357       .  A
C191        N196   1.359       .  A
C191        C200   1.469       .  S
C193        N194   1.358       .  A
C193        C198   1.469       .  S
C195        N196   1.361       .  A
O197        C200   1.267       .  A
O197       Cd202   2.486       .  S
C198        O207   1.264       .  A
C198        O203   1.266       .  A
O199        C205   1.262       .  A
O199       Cd202   2.484       .  S
C200        O208   1.265       .  A
C201        C442   1.464       .  S
C201        O206   1.263       .  A
C201        O204   1.264       .  A
Cd202       O209   2.480       .  S
Cd202       O208   2.453       .  S
Cd202       O207   2.456       .  S
Cd202       O203   2.487       .  S
Cd202       O206   2.467       .  S
Cd202       O204   2.472       .  S
C205        O209   1.262       .  A
O210        C213   1.267       .  A
O210       Cd215   2.486       .  S
C211        C227   1.469       .  S
C211        O220   1.264       .  A
C211        O216   1.266       .  A
O212        C218   1.262       .  A
O212       Cd215   2.484       .  S
C213        C223   1.469       .  S
C213        O221   1.265       .  A
C214        C429   1.464   1_545  S
C214        O219   1.263       .  A
C214        O217   1.264       .  A
Cd215       O222   2.480       .  S
Cd215       O221   2.453       .  S
Cd215       O220   2.456       .  S
Cd215       O216   2.487       .  S
Cd215       O219   2.467       .  S
Cd215       O217   2.472       .  S
C218        O222   1.262       .  A
C223        N224   1.359       .  A
C223        N228   1.357       .  A
N224        C225   1.360       .  A
N226        C227   1.358       .  A
C229        N230   1.359       .  A
C229        N234   1.357       .  A
C229        C251   1.469       .  S
N230        C231   1.361       .  A
C231        N232   1.360       .  A
C231        C294   1.468       .  S
N232        C233   1.358       .  A
C233        N234   1.357       .  A
C233        C249   1.469       .  S
O235        C238   1.267       .  A
O235       Cd392   2.486   1_655  S
C236        C265   1.469       .  S
C236        O245   1.264   1_655  A
C236        O241   1.266       .  A
O237        C319   1.262       .  A
O237       Cd240   2.484       .  S
C238        C261   1.469       .  S
C238        O246   1.265       .  A
C239        C252   1.464       .  S
C239        O244   1.263       .  A
C239        O242   1.264   1_455  A
Cd240       O311   2.486   1_455  S
Cd240       O247   2.480       .  S
Cd240       O322   2.453   1_455  S
Cd240       O245   2.456       .  S
Cd240       O241   2.487   1_455  S
Cd240       O244   2.467       .  S
Cd240       O242   2.472   1_455  S
C243        C271   1.468       .  S
C243        O389   1.262       .  A
C243        O399   1.262   1_554  A
O246       Cd392   2.453   1_655  S
O247        C319   1.262       .  A
O248        C251   1.267       .  A
O248       Cd405   2.486       .  S
C249        O258   1.264       .  A
C249        O254   1.266       .  A
O250        C256   1.262       .  A
O250       Cd861   2.484       .  S
C251        O715   1.265       .  A
C252        O713   1.263       .  A
C252        O255   1.264       .  A
Cd253       O324   2.486       .  S
Cd253       O782   2.484       .  S
Cd253       O716   2.480   1_455  S
Cd253       O791   2.453       .  S
Cd253       O258   2.456       .  S
Cd253       O254   2.487       .  S
Cd253       O713   2.467       .  S
Cd253       O255   2.472       .  S
C256        C301   1.468       .  S
C256        O412   1.262   1_554  A
O257        C708   1.263       .  A
O257       Cd709   2.467       .  S
O259        C707   1.265       .  A
O259       Cd861   2.453       .  S
O260        C332   1.262       .  A
O260       Cd709   2.480       .  S
C261        N718   1.359       .  A
C261        N266   1.357       .  A
N262        C717   1.359       .  A
N262        C263   1.360       .  A
C263        N264   1.360       .  A
C263        C281   1.468       .  S
N264        C721   1.358       .  A
C265        N720   1.358       .  A
C265        N266   1.357       .  A
C267        N268   1.357       .  A
C267        N272   1.359       .  A
C267        C276   1.469       .  S
N268        C421   1.357   1_554  A
C269        N344   1.357       .  A
C269        N270   1.358       .  A
C269        C274   1.469       .  S
N270        C347   1.360       .  A
C271        N422   1.360   1_554  A
C271        N272   1.361       .  A
O273        C276   1.267       .  A
O273       Cd278   2.486       .  S
C274        O283   1.264       .  A
C274        O279   1.266       .  A
O275        C281   1.262       .  A
O275       Cd278   2.484       .  S
C276        O284   1.265       .  A
C277        O282   1.263       .  A
C277        O280   1.264       .  A
Cd278       O285   2.480       .  S
Cd278       O284   2.453       .  S
Cd278       O283   2.456       .  S
Cd278       O279   2.487       .  S
Cd278       O282   2.467       .  S
Cd278       O280   2.472       .  S
C281        O285   1.262       .  A
O286        C289   1.267       .  A
O286       Cd291   2.486       .  S
C287        C303   1.469       .  S
C287        O296   1.264       .  A
C287        O292   1.266       .  A
O288        C294   1.262       .  A
O288       Cd291   2.484       .  S
C289        C299   1.469       .  S
C289        O297   1.265       .  A
C290        O295   1.263       .  A
C290        O293   1.264       .  A
Cd291       O298   2.480       .  S
Cd291       O297   2.453       .  S
Cd291       O296   2.456       .  S
Cd291       O292   2.487       .  S
Cd291       O295   2.467       .  S
Cd291       O293   2.472       .  S
C294        O298   1.262       .  A
C299        N300   1.359       .  A
C299        N304   1.357       .  A
N300        C301   1.360       .  A
C301        N454   1.360   1_554  A
N302        C377   1.360       .  A
N302        C303   1.358       .  A
C303        N380   1.357       .  A
N304        C455   1.357   1_554  A
C305        N306   1.359       .  A
C305        N310   1.357       .  A
C305        C327   1.469       .  S
N306        C307   1.360       .  A
C307        N308   1.360       .  A
C307        C370   1.468       .  S
N308        C309   1.358       .  A
C309        N310   1.357       .  A
C309        C325   1.469       .  S
O311        C314   1.267       .  A
C312        C341   1.469       .  S
C312        O321   1.264   1_655  A
C312        O317   1.266       .  A
O313        C395   1.262       .  A
O313       Cd316   2.484       .  S
C314        C337   1.469       .  S
C314        O322   1.265       .  A
C315        C328   1.464       .  S
C315        O320   1.263       .  A
C315        O318   1.264   1_455  A
Cd316       O387   2.486   1_455  S
Cd316       O323   2.480       .  S
Cd316       O398   2.453   1_455  S
Cd316       O321   2.456       .  S
Cd316       O317   2.487   1_455  S
Cd316       O320   2.467       .  S
Cd316       O318   2.472   1_455  S
C319        C347   1.468       .  S
O323        C395   1.262       .  A
O324        C327   1.267       .  A
C325        O334   1.264       .  A
C325        O330   1.266       .  A
O326        C332   1.262       .  A
O326       Cd709   2.484       .  S
C327        O791   1.265       .  A
C328        O789   1.263       .  A
C328        O331   1.264       .  A
Cd329       O400   2.486       .  S
Cd329       O858   2.484       .  S
Cd329       O792   2.480   1_455  S
Cd329       O867   2.453       .  S
Cd329       O334   2.456       .  S
Cd329       O330   2.487       .  S
Cd329       O789   2.467       .  S
Cd329       O331   2.472       .  S
C332        C377   1.468       .  S
O333        C784   1.263       .  A
O333       Cd785   2.467       .  S
O335        C783   1.265       .  A
O335       Cd709   2.453       .  S
O336        C408   1.262       .  A
O336       Cd785   2.480       .  S
C337        N794   1.359       .  A
C337        N342   1.357       .  A
N338        C793   1.359       .  A
N338        C339   1.361       .  A
C339        N340   1.360       .  A
C339        C357   1.468       .  S
N340        C797   1.358       .  A
C341        N796   1.358       .  A
C341        N342   1.357       .  A
C343        N344   1.357       .  A
C343        N348   1.359       .  A
C343        C352   1.469       .  S
C345        N420   1.357       .  A
C345        N346   1.358       .  A
C345        C350   1.469       .  S
N346        C423   1.360       .  A
C347        N348   1.360       .  A
O349        C352   1.267       .  A
O349       Cd354   2.486       .  S
C350        O359   1.264       .  A
C350        O355   1.266       .  A
O351        C357   1.262       .  A
O351       Cd354   2.484       .  S
C352        O360   1.265       .  A
C353        O358   1.263       .  A
C353        O356   1.264       .  A
Cd354       O361   2.480       .  S
Cd354       O360   2.453       .  S
Cd354       O359   2.456       .  S
Cd354       O355   2.487       .  S
Cd354       O358   2.467       .  S
Cd354       O356   2.472       .  S
C357        O361   1.262       .  A
O362        C365   1.267       .  A
O362       Cd367   2.486       .  S
C363        C379   1.469       .  S
C363        O372   1.264       .  A
C363        O368   1.266       .  A
O364        C370   1.262       .  A
O364       Cd367   2.484       .  S
C365        C375   1.469       .  S
C365        O373   1.265       .  A
C366        O371   1.263       .  A
C366        O369   1.264       .  A
Cd367       O374   2.480       .  S
Cd367       O373   2.453       .  S
Cd367       O372   2.456       .  S
Cd367       O368   2.487       .  S
Cd367       O371   2.467       .  S
Cd367       O369   2.472       .  S
C370        O374   1.262       .  A
C375        N376   1.359       .  A
C375        N380   1.357       .  A
N376        C377   1.360       .  A
N378        C453   1.360       .  A
N378        C379   1.358       .  A
C379        N456   1.357       .  A
C381        N382   1.359       .  A
C381        N386   1.357       .  A
C381        C403   1.469       .  S
N382        C383   1.360       .  A
C383        N384   1.360       .  A
C383        C446   1.468       .  S
N384        C385   1.358       .  A
C385        N386   1.357       .  A
C385        C401   1.469       .  S
O387        C390   1.267       .  A
C388        C417   1.469       .  S
C388        O397   1.264   1_655  A
C388        O393   1.266       .  A
O389       Cd392   2.484       .  S
C390        C413   1.469       .  S
C390        O398   1.265       .  A
C391        C404   1.465       .  S
C391        O396   1.263       .  A
C391        O394   1.264   1_455  A
Cd392       O399   2.480   1_554  S
Cd392       O397   2.456   1_554  S
Cd392       O393   2.487   1_454  S
Cd392       O396   2.467       .  S
Cd392       O394   2.472   1_455  S
C395        C423   1.468       .  S
O400        C403   1.267       .  A
C401        O410   1.264       .  A
C401        O406   1.266       .  A
O402        C408   1.262       .  A
O402       Cd785   2.484       .  S
C403        O867   1.265       .  A
C404        O865   1.263       .  A
C404        O407   1.264       .  A
Cd405       O706   2.484       .  S
Cd405       O868   2.480   1_454  S
Cd405       O715   2.453       .  S
Cd405       O410   2.456   1_554  S
Cd405       O406   2.487   1_554  S
Cd405       O865   2.467       .  S
Cd405       O407   2.472       .  S
C408        C453   1.468       .  S
O409        C860   1.263       .  A
O409       Cd861   2.467       .  S
O411        C859   1.265       .  A
O411       Cd785   2.453       .  S
O412       Cd861   2.480   1_556  S
C413        N870   1.359       .  A
C413        N418   1.357       .  A
N414        C869   1.359       .  A
N414        C415   1.360       .  A
C415        N416   1.360       .  A
C415        C433   1.468       .  S
N416        C873   1.358       .  A
C417        N872   1.358       .  A
C417        N418   1.357       .  A
C419        N420   1.357       .  A
C419        N424   1.359       .  A
C419        C428   1.469       .  S
C421        N422   1.358       .  A
C421        C426   1.469       .  S
C423        N424   1.361       .  A
O425        C428   1.267       .  A
O425       Cd430   2.486       .  S
C426        O435   1.264       .  A
C426        O431   1.266       .  A
O427        C433   1.262       .  A
O427       Cd430   2.484       .  S
C428        O436   1.265       .  A
C429        O434   1.263       .  A
C429        O432   1.264       .  A
Cd430       O437   2.480       .  S
Cd430       O436   2.453       .  S
Cd430       O435   2.456       .  S
Cd430       O431   2.487       .  S
Cd430       O434   2.467       .  S
Cd430       O432   2.472       .  S
C433        O437   1.262       .  A
O438        C441   1.267       .  A
O438       Cd443   2.486       .  S
C439        C455   1.469       .  S
C439        O448   1.264       .  A
C439        O444   1.266       .  A
O440        C446   1.262       .  A
O440       Cd443   2.484       .  S
C441        C451   1.469       .  S
C441        O449   1.265       .  A
C442        O447   1.263       .  A
C442        O445   1.264       .  A
Cd443       O450   2.480       .  S
Cd443       O449   2.453       .  S
Cd443       O448   2.456       .  S
Cd443       O444   2.487       .  S
Cd443       O447   2.467       .  S
Cd443       O445   2.472       .  S
C446        O450   1.262       .  A
C451        N452   1.359       .  A
C451        N456   1.357       .  A
N452        C453   1.360       .  A
N454        C455   1.358       .  A
C457        N458   1.359       .  A
C457        N462   1.357       .  A
C457        C479   1.469       .  S
N458        C459   1.361       .  A
C459        N460   1.360       .  A
C459        C522   1.468       .  S
N460        C461   1.358       .  A
C461        N462   1.357       .  A
C461        C477   1.469       .  S
O463        C466   1.267       .  A
O463       Cd620   2.486       .  S
C464        C493   1.469       .  S
C464        O473   1.264       .  A
C464        O469   1.266       .  A
O465        C547   1.262       .  A
O465       Cd468   2.484       .  S
C466        C489   1.469       .  S
C466        O474   1.265       .  A
C467        C480   1.465       .  S
C467        O472   1.263       .  A
C467        O470   1.264       .  A
Cd468       O539   2.486       .  S
Cd468       O475   2.480       .  S
Cd468       O550   2.453       .  S
Cd468       O473   2.456       .  S
Cd468       O469   2.487       .  S
Cd468       O472   2.467       .  S
Cd468       O470   2.472       .  S
C471        C499   1.468       .  S
C471        O617   1.262       .  A
C471        O627   1.262   1_554  A
O474       Cd620   2.453       .  S
O475        C547   1.262       .  A
O476        C479   1.267       .  A
O476       Cd633   2.486       .  S
C477        O486   1.264       .  A
C477        O482   1.266       .  A
O478        C484   1.262   1_455  A
C480        O483   1.264       .  A
Cd481       O552   2.486       .  S
Cd481       O486   2.456       .  S
Cd481       O482   2.487       .  S
Cd481       O483   2.472       .  S
C484        C529   1.468       .  S
C484        O640   1.262   1_554  A
O488        C560   1.262       .  A
C489        N494   1.357       .  A
N490        C491   1.360       .  A
C491        N492   1.360       .  A
C491        C509   1.468       .  S
C493        N494   1.357       .  A
C495        N496   1.357       .  A
C495        N500   1.359       .  A
C495        C504   1.469       .  S
N496        C649   1.357   1_554  A
C497        N572   1.357       .  A
C497        N498   1.358       .  A
C497        C502   1.469       .  S
N498        C575   1.360       .  A
C499        N650   1.360   1_554  A
C499        N500   1.361       .  A
O501        C504   1.267       .  A
O501       Cd506   2.486       .  S
C502        O511   1.264       .  A
C502        O507   1.266       .  A
O503        C509   1.262       .  A
O503       Cd506   2.484       .  S
C504        O512   1.265       .  A
C505        C746   1.464       .  S
C505        O510   1.263       .  A
C505        O508   1.264       .  A
Cd506       O513   2.480       .  S
Cd506       O512   2.453       .  S
Cd506       O511   2.456       .  S
Cd506       O507   2.487       .  S
Cd506       O510   2.467       .  S
Cd506       O508   2.472       .  S
C509        O513   1.262       .  A
O514        C517   1.267       .  A
O514       Cd519   2.486       .  S
C515        C531   1.469       .  S
C515        O524   1.264       .  A
C515        O520   1.266       .  A
O516        C522   1.262       .  A
O516       Cd519   2.484       .  S
C517        C527   1.469       .  S
C517        O525   1.265       .  A
C518        C733   1.464   1_545  S
C518        O523   1.263       .  A
C518        O521   1.264       .  A
Cd519       O526   2.480       .  S
Cd519       O525   2.453       .  S
Cd519       O524   2.456       .  S
Cd519       O520   2.487       .  S
Cd519       O523   2.467       .  S
Cd519       O521   2.472       .  S
C522        O526   1.262       .  A
C527        N528   1.359       .  A
C527        N532   1.357       .  A
N528        C529   1.360       .  A
C529        N682   1.360   1_554  A
N530        C605   1.360       .  A
N530        C531   1.358       .  A
C531        N608   1.357       .  A
N532        C683   1.357   1_554  A
C533        N534   1.359       .  A
C533        N538   1.357       .  A
C533        C555   1.469       .  S
N534        C535   1.360       .  A
C535        N536   1.360       .  A
C535        C598   1.468       .  S
N536        C537   1.358       .  A
C537        N538   1.357       .  A
C537        C553   1.469       .  S
O539        C542   1.267       .  A
C540        C569   1.469       .  S
C540        O549   1.264       .  A
C540        O545   1.266       .  A
O541        C623   1.262       .  A
O541       Cd544   2.484       .  S
C542        C565   1.469       .  S
C542        O550   1.265       .  A
C543        C556   1.464       .  S
C543        O548   1.263       .  A
C543        O546   1.264       .  A
Cd544       O615   2.486       .  S
Cd544       O551   2.480       .  S
Cd544       O626   2.453       .  S
Cd544       O549   2.456       .  S
Cd544       O545   2.487       .  S
Cd544       O548   2.467       .  S
Cd544       O546   2.472       .  S
C547        C575   1.468       .  S
O551        C623   1.262       .  A
O552        C555   1.267       .  A
C553        O562   1.264       .  A
C553        O558   1.266       .  A
O554        C560   1.262   1_455  A
C556        O559   1.264       .  A
Cd557       O628   2.486       .  S
Cd557       O562   2.456       .  S
Cd557       O558   2.487       .  S
Cd557       O559   2.472       .  S
C560        C605   1.468       .  S
O564        C636   1.262       .  A
C565        N570   1.357       .  A
N566        C567   1.360       .  A
C567        N568   1.360       .  A
C567        C585   1.468       .  S
C569        N570   1.357       .  A
C571        N572   1.357       .  A
C571        N576   1.359       .  A
C571        C580   1.469       .  S
C573        N648   1.357       .  A
C573        N574   1.358       .  A
C573        C578   1.469       .  S
N574        C651   1.360       .  A
C575        N576   1.360       .  A
O577        C580   1.266       .  A
O577       Cd582   2.486       .  S
C578        O587   1.264       .  A
C578        O583   1.266       .  A
O579        C585   1.262       .  A
O579       Cd582   2.484       .  S
C580        O588   1.265       .  A
C581        C822   1.465       .  S
C581        O586   1.263       .  A
C581        O584   1.264       .  A
Cd582       O589   2.480       .  S
Cd582       O588   2.453       .  S
Cd582       O587   2.456       .  S
Cd582       O583   2.487       .  S
Cd582       O586   2.467       .  S
Cd582       O584   2.472       .  S
C585        O589   1.262       .  A
O590        C593   1.267       .  A
O590       Cd595   2.486       .  S
C591        C607   1.469       .  S
C591        O600   1.264       .  A
C591        O596   1.266       .  A
O592        C598   1.262       .  A
O592       Cd595   2.484       .  S
C593        C603   1.469       .  S
C593        O601   1.265       .  A
C594        C809   1.464   1_545  S
C594        O599   1.263       .  A
C594        O597   1.264       .  A
Cd595       O602   2.480       .  S
Cd595       O601   2.453       .  S
Cd595       O600   2.456       .  S
Cd595       O596   2.487       .  S
Cd595       O599   2.467       .  S
Cd595       O597   2.472       .  S
C598        O602   1.262       .  A
C603        N604   1.359       .  A
C603        N608   1.357       .  A
N604        C605   1.360       .  A
N606        C681   1.360       .  A
N606        C607   1.358       .  A
C607        N684   1.357       .  A
C609        N610   1.359       .  A
C609        N614   1.357       .  A
C609        C631   1.469       .  S
N610        C611   1.360       .  A
C611        N612   1.360       .  A
C611        C674   1.468       .  S
N612        C613   1.358       .  A
C613        N614   1.357       .  A
C613        C629   1.469       .  S
O615        C618   1.267       .  A
C616        C645   1.469       .  S
C616        O625   1.264       .  A
C616        O621   1.266       .  A
O617       Cd620   2.484       .  S
C618        C641   1.469       .  S
C618        O626   1.265       .  A
C619        C632   1.464       .  S
C619        O624   1.263       .  A
C619        O622   1.264       .  A
Cd620       O627   2.480   1_554  S
Cd620       O625   2.456   1_554  S
Cd620       O621   2.487   1_554  S
Cd620       O624   2.467       .  S
Cd620       O622   2.472       .  S
C623        C651   1.468       .  S
O628        C631   1.267       .  A
C629        O638   1.264       .  A
C629        O634   1.266       .  A
O630        C636   1.262   1_455  A
C632        O635   1.264       .  A
Cd633       O638   2.456   1_554  S
Cd633       O634   2.487   1_554  S
Cd633       O635   2.472       .  S
C636        C681   1.468       .  S
C641        N646   1.357       .  A
N642        C643   1.361       .  A
C643        N644   1.360       .  A
C643        C661   1.468       .  S
C645        N646   1.357       .  A
C647        N648   1.357       .  A
C647        N652   1.359       .  A
C647        C656   1.469       .  S
C649        N650   1.358       .  A
C649        C654   1.469       .  S
C651        N652   1.361       .  A
O653        C656   1.267       .  A
O653       Cd658   2.486       .  S
C654        O663   1.264       .  A
C654        O659   1.266       .  A
O655        C661   1.262       .  A
O655       Cd658   2.484       .  S
C656        O664   1.265       .  A
C657        C898   1.465       .  S
C657        O662   1.263       .  A
C657        O660   1.264       .  A
Cd658       O665   2.480       .  S
Cd658       O664   2.453       .  S
Cd658       O663   2.456       .  S
Cd658       O659   2.487       .  S
Cd658       O662   2.467       .  S
Cd658       O660   2.472       .  S
C661        O665   1.262       .  A
O666        C669   1.267       .  A
O666       Cd671   2.486       .  S
C667        C683   1.469       .  S
C667        O676   1.264       .  A
C667        O672   1.266       .  A
O668        C674   1.262       .  A
O668       Cd671   2.484       .  S
C669        C679   1.469       .  S
C669        O677   1.265       .  A
C670        C885   1.464   1_545  S
C670        O675   1.263       .  A
C670        O673   1.264       .  A
Cd671       O678   2.480       .  S
Cd671       O677   2.453       .  S
Cd671       O676   2.456       .  S
Cd671       O672   2.487       .  S
Cd671       O675   2.467       .  S
Cd671       O673   2.472       .  S
C674        O678   1.262       .  A
C679        N680   1.359       .  A
C679        N684   1.357       .  A
N680        C681   1.360       .  A
N682        C683   1.358       .  A
C685        N686   1.359       .  A
C685        N690   1.357       .  A
C685        C707   1.469       .  S
N686        C687   1.361       .  A
C687        N688   1.360       .  A
C687        C750   1.468       .  S
N688        C689   1.358       .  A
C689        N690   1.357       .  A
C689        C705   1.469       .  S
O691        C694   1.267       .  A
O691       Cd848   2.486       .  S
C692        C721   1.469       .  S
C692        O701   1.264       .  A
C692        O697   1.266       .  A
O693        C775   1.262       .  A
O693       Cd696   2.484       .  S
C694        C717   1.469       .  S
C694        O702   1.265       .  A
C695        C708   1.464       .  S
C695        O700   1.263       .  A
C695        O698   1.264       .  A
Cd696       O767   2.486       .  S
Cd696       O703   2.480       .  S
Cd696       O778   2.453       .  S
Cd696       O701   2.456       .  S
Cd696       O697   2.487       .  S
Cd696       O700   2.467       .  S
Cd696       O698   2.472       .  S
C699        C727   1.468       .  S
C699        O845   1.262       .  A
C699        O855   1.262   1_554  A
O702       Cd848   2.453       .  S
O703        C775   1.262       .  A
O704        C707   1.267       .  A
O704       Cd861   2.486       .  S
C705        O714   1.264       .  A
C705        O710   1.266       .  A
O706        C712   1.262   1_455  A
C708        O711   1.264       .  A
Cd709       O780   2.486       .  S
Cd709       O714   2.456       .  S
Cd709       O710   2.487       .  S
Cd709       O711   2.472       .  S
C712        C757   1.468       .  S
C712        O868   1.262   1_554  A
O716        C788   1.262       .  A
C717        N722   1.357       .  A
N718        C719   1.360       .  A
C719        N720   1.360       .  A
C719        C737   1.468       .  S
C721        N722   1.357       .  A
C723        N724   1.357       .  A
C723        N728   1.359       .  A
C723        C732   1.469       .  S
N724        C877   1.357   1_554  A
C725        N800   1.357       .  A
C725        N726   1.358       .  A
C725        C730   1.469       .  S
N726        C803   1.360       .  A
C727        N878   1.360   1_554  A
C727        N728   1.361       .  A
O729        C732   1.267       .  A
O729       Cd734   2.486       .  S
C730        O739   1.264       .  A
C730        O735   1.266       .  A
O731        C737   1.262       .  A
O731       Cd734   2.484       .  S
C732        O740   1.265       .  A
C733        O738   1.263       .  A
C733        O736   1.264       .  A
Cd734       O741   2.480       .  S
Cd734       O740   2.453       .  S
Cd734       O739   2.456       .  S
Cd734       O735   2.487       .  S
Cd734       O738   2.467       .  S
Cd734       O736   2.472       .  S
C737        O741   1.262       .  A
O742        C745   1.267       .  A
O742       Cd747   2.486       .  S
C743        C759   1.469       .  S
C743        O752   1.264       .  A
C743        O748   1.266       .  A
O744        C750   1.262       .  A
O744       Cd747   2.484       .  S
C745        C755   1.469       .  S
C745        O753   1.265       .  A
C746        O751   1.263       .  A
C746        O749   1.264       .  A
Cd747       O754   2.480       .  S
Cd747       O753   2.453       .  S
Cd747       O752   2.456       .  S
Cd747       O748   2.487       .  S
Cd747       O751   2.467       .  S
Cd747       O749   2.472       .  S
C750        O754   1.262       .  A
C755        N756   1.359       .  A
C755        N760   1.357       .  A
N756        C757   1.360       .  A
C757        N910   1.360   1_554  A
N758        C833   1.360       .  A
N758        C759   1.358       .  A
C759        N836   1.357       .  A
N760        C911   1.357   1_554  A
C761        N762   1.359       .  A
C761        N766   1.357       .  A
C761        C783   1.469       .  S
N762        C763   1.360       .  A
C763        N764   1.360       .  A
C763        C826   1.468       .  S
N764        C765   1.358       .  A
C765        N766   1.357       .  A
C765        C781   1.469       .  S
O767        C770   1.267       .  A
C768        C797   1.469       .  S
C768        O777   1.264       .  A
C768        O773   1.266       .  A
O769        C851   1.262       .  A
O769       Cd772   2.484       .  S
C770        C793   1.469       .  S
C770        O778   1.265       .  A
C771        C784   1.464       .  S
C771        O776   1.263       .  A
C771        O774   1.264       .  A
Cd772       O843   2.486       .  S
Cd772       O779   2.480       .  S
Cd772       O854   2.453       .  S
Cd772       O777   2.456       .  S
Cd772       O773   2.487       .  S
Cd772       O776   2.467       .  S
Cd772       O774   2.472       .  S
C775        C803   1.468       .  S
O779        C851   1.262       .  A
O780        C783   1.267       .  A
C781        O790   1.264       .  A
C781        O786   1.266       .  A
O782        C788   1.262   1_455  A
C784        O787   1.264       .  A
Cd785       O856   2.486       .  S
Cd785       O790   2.456       .  S
Cd785       O786   2.487       .  S
Cd785       O787   2.472       .  S
C788        C833   1.468       .  S
O792        C864   1.262       .  A
C793        N798   1.357       .  A
N794        C795   1.361       .  A
C795        N796   1.360       .  A
C795        C813   1.468       .  S
C797        N798   1.357       .  A
C799        N800   1.357       .  A
C799        N804   1.359       .  A
C799        C808   1.469       .  S
C801        N876   1.357       .  A
C801        N802   1.358       .  A
C801        C806   1.469       .  S
N802        C879   1.360       .  A
C803        N804   1.360       .  A
O805        C808   1.267       .  A
O805       Cd810   2.486       .  S
C806        O815   1.264       .  A
C806        O811   1.266       .  A
O807        C813   1.262       .  A
O807       Cd810   2.484       .  S
C808        O816   1.265       .  A
C809        O814   1.263       .  A
C809        O812   1.264       .  A
Cd810       O817   2.480       .  S
Cd810       O816   2.453       .  S
Cd810       O815   2.456       .  S
Cd810       O811   2.487       .  S
Cd810       O814   2.467       .  S
Cd810       O812   2.472       .  S
C813        O817   1.262       .  A
O818        C821   1.267       .  A
O818       Cd823   2.486       .  S
C819        C835   1.469       .  S
C819        O828   1.264       .  A
C819        O824   1.266       .  A
O820        C826   1.262       .  A
O820       Cd823   2.484       .  S
C821        C831   1.469       .  S
C821        O829   1.265       .  A
C822        O827   1.263       .  A
C822        O825   1.264       .  A
Cd823       O830   2.480       .  S
Cd823       O829   2.453       .  S
Cd823       O828   2.456       .  S
Cd823       O824   2.487       .  S
Cd823       O827   2.467       .  S
Cd823       O825   2.472       .  S
C826        O830   1.262       .  A
C831        N832   1.359       .  A
C831        N836   1.357       .  A
N832        C833   1.360       .  A
N834        C909   1.360       .  A
N834        C835   1.358       .  A
C835        N912   1.357       .  A
C837        N838   1.359       .  A
C837        N842   1.357       .  A
C837        C859   1.469       .  S
N838        C839   1.360       .  A
C839        N840   1.360       .  A
C839        C902   1.468       .  S
N840        C841   1.358       .  A
C841        N842   1.357       .  A
C841        C857   1.469       .  S
O843        C846   1.267       .  A
C844        C873   1.469       .  S
C844        O853   1.264       .  A
C844        O849   1.266       .  A
O845       Cd848   2.484       .  S
C846        C869   1.469       .  S
C846        O854   1.265       .  A
C847        C860   1.465       .  S
C847        O852   1.263       .  A
C847        O850   1.264       .  A
Cd848       O855   2.480   1_554  S
Cd848       O853   2.456   1_554  S
Cd848       O849   2.487   1_554  S
Cd848       O852   2.467       .  S
Cd848       O850   2.472       .  S
C851        C879   1.468       .  S
O856        C859   1.267       .  A
C857        O866   1.264       .  A
C857        O862   1.266       .  A
O858        C864   1.262   1_455  A
C860        O863   1.264       .  A
Cd861       O866   2.456   1_554  S
Cd861       O862   2.487   1_554  S
Cd861       O863   2.472       .  S
C864        C909   1.468       .  S
C869        N874   1.357       .  A
N870        C871   1.360       .  A
C871        N872   1.360       .  A
C871        C889   1.468       .  S
C873        N874   1.357       .  A
C875        N876   1.357       .  A
C875        N880   1.359       .  A
C875        C884   1.469       .  S
C877        N878   1.358       .  A
C877        C882   1.469       .  S
C879        N880   1.361       .  A
O881        C884   1.267       .  A
O881       Cd886   2.486       .  S
C882        O891   1.264       .  A
C882        O887   1.266       .  A
O883        C889   1.262       .  A
O883       Cd886   2.484       .  S
C884        O892   1.265       .  A
C885        O890   1.263       .  A
C885        O888   1.264       .  A
Cd886       O893   2.480       .  S
Cd886       O892   2.453       .  S
Cd886       O891   2.456       .  S
Cd886       O887   2.487       .  S
Cd886       O890   2.467       .  S
Cd886       O888   2.472       .  S
C889        O893   1.262       .  A
O894        C897   1.267       .  A
O894       Cd899   2.486       .  S
C895        C911   1.469       .  S
C895        O904   1.264       .  A
C895        O900   1.266       .  A
O896        C902   1.262       .  A
O896       Cd899   2.484       .  S
C897        C907   1.469       .  S
C897        O905   1.265       .  A
C898        O903   1.263       .  A
C898        O901   1.264       .  A
Cd899       O906   2.480       .  S
Cd899       O905   2.453       .  S
Cd899       O904   2.456       .  S
Cd899       O900   2.487       .  S
Cd899       O903   2.467       .  S
Cd899       O901   2.472       .  S
C902        O906   1.262       .  A
C907        N908   1.359       .  A
C907        N912   1.357       .  A
N908        C909   1.360       .  A
N910        C911   1.358       .  A
