geometry optimzed in LAMMPS
_audit_creation_date              2020-11-30 
_audit_creation_method            'lammps2cif' 
_symmetry_space_group_name_H-M    'P1' 
_symmetry_Int_Tables_number       1 
_symmetry_cell_setting            triclinic 
loop_ 
_symmetry_equiv_pos_as_xyz 
  x,y,z 
_cell_length_a                    46.83699127 
_cell_length_b                    46.64018529426809 
_cell_length_c                    26.132475529438203 
_cell_angle_alpha                 90.05947437646378 
_cell_angle_beta                  90.03305631561958 
_cell_angle_gamma                 90.3323639258809 
loop_ 
_atom_site_label 
_atom_site_type_symbol 
_atom_site_fract_x 
_atom_site_fract_y 
_atom_site_fract_z 
_atom_site_charge 
In1        In  0.16875169  0.44954725  0.28470044     1.36900
C2          C  0.11589604  0.46995618  0.29828305     0.76500
O3          O  0.18198627  0.46569424  0.36455019    -0.61900
O4          O  0.21117087  0.44073204  0.32252580    -0.52800
C5          C  0.15616010  0.39427288  0.29044090     0.69200
O6          O  0.15856581  0.40725452  0.24829913    -0.47700
C7          C  0.18457592  0.46784564  0.19035735     0.73900
O8          O  0.12087123  0.44439180  0.28628692    -0.59500
O9          O  0.17559263  0.48416917  0.22532652    -0.49600
O10         O  0.13791911  0.48568062  0.30084172    -0.56000
C11         C  0.20453234  0.45114615  0.36549185     0.84100
O12         O  0.15982311  0.40955831  0.32956322    -0.57800
O13         O  0.18952786  0.44275178  0.20552708    -0.61100
C14         C  0.01055113  0.57403906  0.22037860     0.85500
C15         C  0.48193927  0.55827372  0.22273458    -0.54800
C16         C  0.48356409  0.52905071  0.21740551     0.08400
C17         C  0.01481993  0.51858722  0.20977744     0.19300
C18         C  0.02896038  0.55997897  0.26184118    -0.55500
C19         C  0.03098806  0.53095781  0.25717364     0.08500
C20         C  0.02345041  0.56488772  0.16938864    -0.55000
C21         C  0.02577532  0.53604728  0.16283630     0.09100
H22         H  0.46206662  0.56996463  0.22740578     0.13600
H23         H  0.01732326  0.49510452  0.20543292    -0.00700
H24         H  0.03936771  0.57192183  0.29238590     0.13900
H25         H  0.03055413  0.58012310  0.14057613     0.13700
C26         C  0.08653220  0.48028854  0.31277394     0.85500
C27         C  0.06289041  0.45718107  0.31326366    -0.54800
C28         C  0.03650371  0.46674679  0.32902959     0.08400
C29         C  0.03687578  0.49905783  0.34316692     0.19300
C30         C  0.07464090  0.50394349  0.27866890    -0.55500
C31         C  0.04839010  0.51346657  0.29322735     0.08500
C32         C  0.08670366  0.49219536  0.36684710    -0.55000
C33         C  0.06112199  0.50167164  0.38417467     0.09100
H34         H  0.06696316  0.43539835  0.30091520     0.13600
H35         H  0.01613619  0.50762949  0.35631880    -0.00700
H36         H  0.08504609  0.51093899  0.24364885     0.13900
H37         H  0.10574333  0.49207377  0.39074626     0.13700
C38         C  0.23269135  0.40249347  0.47152523     0.85500
C39         C  0.26142921  0.41826656  0.47426664    -0.54800
C40         C  0.25993073  0.44754538  0.46862664     0.08400
C41         C  0.22867876  0.45808747  0.46077752     0.19300
C42         C  0.21415964  0.41687380  0.01277408    -0.55500
C43         C  0.21212949  0.44598003  0.50795196     0.08500
C44         C  0.22004139  0.41175896  0.42032445    -0.55000
C45         C  0.21786179  0.44062868  0.41373866     0.09100
H46         H  0.28119009  0.40661967  0.47917346     0.13600
H47         H  0.22628259  0.48156320  0.45623737    -0.00700
H48         H  0.20365554  0.40505012  0.04327747     0.13900
H49         H  0.21297483  0.39656666  0.39135165     0.13700
C50         C  0.15710960  0.49797496  0.06433258     0.85500
C51         C  0.18112590  0.52055825  0.06434953    -0.54800
C52         C  0.20743165  0.51053769  0.07976266     0.08400
C53         C  0.20668556  0.47829346  0.09386096     0.19300
C54         C  0.16856127  0.47395281  0.02997943    -0.55500
C55         C  0.19480587  0.46391592  0.04410517     0.08500
C56         C  0.15713050  0.48616577  0.11851337    -0.55000
C57         C  0.18265543  0.47617028  0.13524153     0.09100
H58         H  0.17725071  0.54235244  0.05202180     0.13600
H59         H  0.22738277  0.46948815  0.10675427    -0.00700
H60         H  0.15787173  0.46711376  0.49510861     0.13900
H61         H  0.13832121  0.48672661  0.14291432     0.13700
In62       In  0.07479344  0.52942303  0.03354408     1.36900
C63         C  0.12773082  0.50902137  0.05025451     0.76500
O64         O  0.06308089  0.51322170  0.11397492    -0.61900
O65         O  0.03179423  0.53517794  0.07153625    -0.52800
C66         C  0.08511521  0.58569385  0.53514816     0.69200
O67         O  0.08671523  0.57098506  0.99472492    -0.47700
C68         C  0.05956325  0.50984515  0.43947638     0.73900
O69         O  0.12291485  0.53471594  0.03836764    -0.59500
O70         O  0.07179810  0.49501376  0.47320991    -0.49600
O71         O  0.10552819  0.49356768  0.05246061    -0.56000
C72         C  0.03937384  0.52575463  0.11471976     0.84100
O73         O  0.07843340  0.57170822  0.57446415    -0.57800
O74         O  0.05103141  0.53368336  0.45592847    -0.61100
In75       In  0.41897071  0.44983556  0.01352439     1.36900
C76         C  0.36586656  0.46960996  0.99951748     0.76500
O77         O  0.44161143  0.44403491  0.09154560    -0.61900
O78         O  0.42332552  0.48403125  0.07422558    -0.52800
C79         C  0.40685772  0.39438988  0.00895275     0.69200
O80         O  0.40877533  0.40784241  0.05072764    -0.47700
C81         C  0.45475207  0.45202195  0.43289982     0.73900
O82         O  0.37108457  0.44404876  0.01121712    -0.59500
O83         O  0.46175756  0.44231709  0.47616788    -0.49600
O84         O  0.38776677  0.48553924  0.99703789    -0.56000
C85         C  0.43433747  0.46828401  0.10809365     0.84100
O86         O  0.41097588  0.40924577  0.96952254    -0.57800
O87         O  0.43172793  0.46580828  0.43339602    -0.61100
C88         C  0.26089737  0.57404319  0.07781709     0.85500
C89         C  0.27922865  0.55975164  0.03652108    -0.54800
C90         C  0.28113724  0.53075380  0.04144147     0.08400
C91         C  0.26494369  0.51863053  0.08896682     0.19300
C92         C  0.23222593  0.55840911  0.07560297    -0.55500
C93         C  0.23371515  0.52920822  0.08131656     0.08500
C94         C  0.27379257  0.56507741  0.12892086    -0.55000
C95         C  0.27601698  0.53623792  0.13574486     0.09100
H96         H  0.28963451  0.57151998  0.00582535     0.13600
H97         H  0.26734538  0.49515597  0.09353880    -0.00700
H98         H  0.21251186  0.57015997  0.07083207     0.13900
H99         H  0.28097491  0.58042141  0.15755935     0.13700
C100        C  0.33637047  0.47982650  0.98539846     0.85500
C101        C  0.32463999  0.50353591  0.01964610    -0.54800
C102        C  0.29835957  0.51310618  0.00534175     0.08400
C103        C  0.28666172  0.49873060  0.45547062     0.19300
C104        C  0.31265101  0.45678647  0.48514339    -0.55500
C105        C  0.28620079  0.46644682  0.46966878     0.08500
C106        C  0.33639019  0.49167608  0.43140146    -0.55000
C107        C  0.31080840  0.50123196  0.41426534     0.09100
H108        H  0.33518973  0.51055364  0.05455895     0.13600
H109        H  0.26591013  0.50737318  0.44252116    -0.00700
H110        H  0.31673763  0.43502567  0.49746105     0.13900
H111        H  0.35536808  0.49150529  0.40738452     0.13700
In112      In  0.32501413  0.52908285  0.26523252     1.36900
C113        C  0.37787345  0.50825828  0.24964865     0.76500
O114        O  0.30100649  0.53341384  0.34265706    -0.61900
O115        O  0.32154296  0.49462727  0.32526904    -0.52800
C116        C  0.33610981  0.58523566  0.26207978     0.69200
O117        O  0.33609654  0.57119387  0.30333398    -0.47700
C118        C  0.28949620  0.52601649  0.18403402     0.73900
O119        O  0.37320944  0.53375058  0.26309284    -0.59500
O120        O  0.28228694  0.53602379  0.22700558    -0.49600
O121        O  0.35553859  0.49308385  0.24577647    -0.56000
C122        C  0.30929872  0.50947567  0.35899871     0.84100
O123        O  0.33089094  0.57059579  0.22274644    -0.57800
O124        O  0.31273706  0.51263218  0.18506387    -0.61100
C125        C  0.48327748  0.40252632  0.32835485     0.85500
C126        C  0.46484838  0.41656816  0.28654184    -0.54800
C127        C  0.46275954  0.44571108  0.29064915     0.08400
C128        C  0.47911478  0.45822497  0.33773743     0.19300
C129        C  0.01200194  0.41835372  0.32562197    -0.55500
C130        C  0.01038229  0.44769345  0.33049780     0.08500
C131        C  0.47044159  0.41223041  0.37915012    -0.55000
C132        C  0.46818587  0.44115053  0.38501251     0.09100
H133        H  0.45435821  0.40446770  0.25630461     0.13600
H134        H  0.47665372  0.48173089  0.34170846    -0.00700
H135        H  0.03183527  0.40673501  0.32125924     0.13900
H136        H  0.46331588  0.39728313  0.40841232     0.13700
C137        C  0.40724013  0.49731513  0.23525333     0.85500
C138        C  0.40710030  0.48576166  0.18087106    -0.54800
C139        C  0.43260276  0.47601576  0.16358278     0.08400
C140        C  0.45678396  0.47800409  0.20478388     0.19300
C141        C  0.41890854  0.47318312  0.26899982    -0.55500
C142        C  0.44515562  0.46334325  0.25445467     0.08500
C143        C  0.43117241  0.51999810  0.23537286    -0.55000
C144        C  0.45743222  0.51019603  0.21939338     0.09100
H145        H  0.38817983  0.48638228  0.15671296     0.13600
H146        H  0.47746790  0.46936127  0.19147665    -0.00700
H147        H  0.40842124  0.46621005  0.30394415     0.13900
H148        H  0.42727860  0.54182357  0.24809597     0.13700
C149        C  0.03379489  0.77069381  0.10090428     0.85500
C150        C  0.06131135  0.75718565  0.07973484    -0.54800
C151        C  0.07512512  0.73999600  0.11408578     0.08400
C152        C  0.06098568  0.73941580  0.16641165     0.19300
C153        C  0.01605862  0.74514813  0.12059317    -0.55500
C154        C  0.03065933  0.72847416  0.15441651     0.08500
C155        C  0.04280358  0.78726086  0.14798923    -0.55000
C156        C  0.05768625  0.77121325  0.18153547     0.09100
H157        H  0.06664067  0.75758831  0.53930679     0.13600
H158        H  0.07291261  0.72652792  0.19495964    -0.00700
H159        H  0.49445259  0.74022584  0.10800880     0.13900
H160        H  0.04017222  0.81029286  0.15211208     0.13700
In161      In  0.24741629  0.66152643  0.06107519     1.36900
C162        C  0.26939806  0.68944129  0.48416842     0.76500
O163        O  0.20772503  0.66205241  0.01588052    -0.61900
O164        O  0.20450454  0.66131648  0.09766397    -0.52800
C165        C  0.25772036  0.60589548  0.07168084     0.69200
O166        O  0.25026938  0.61694496  0.02989422    -0.47700
C167        C  0.26829444  0.70231891  0.11937770     0.73900
O168        O  0.28204880  0.66855539  0.00474737    -0.59500
O169        O  0.24210927  0.69592618  0.12003425    -0.49600
O170        O  0.24444502  0.69405403  0.99980476    -0.56000
C171        C  0.19191111  0.66253791  0.05489998     0.84100
O172        O  0.26088684  0.62354687  0.10798548    -0.57800
O173        O  0.28402162  0.68497501  0.09575954    -0.61100
In174      In  0.10602857  0.67107357  0.54072609     1.36900
C175        C  0.09071845  0.71514982  0.09502475     0.76500
O176        O  0.14482550  0.66487524  0.08853254    -0.61900
O177        O  0.14934513  0.66880255  0.50739688    -0.52800
C178        C  0.09149972  0.61639498  0.53689697     0.69200
O179        O  0.08911264  0.63111664  0.07738237    -0.47700
C180        C  0.07472541  0.69407390  0.46992659     0.73900
O181        O  0.08438398  0.68979804  0.10856908    -0.59500
O182        O  0.10161888  0.69644912  0.46982781    -0.49600
O183        O  0.10832026  0.71738368  0.05887831    -0.56000
C184        C  0.16121961  0.66527114  0.05026651     0.84100
O185        O  0.10050503  0.62987111  0.49826035    -0.57800
O186        O  0.06406148  0.67817910  0.50405689    -0.61100
C187        C  0.28370759  0.70803999  0.44597865     0.85500
C188        C  0.31070250  0.72261324  0.96767264    -0.54800
C189        C  0.32446523  0.73997470  0.43332881     0.08400
C190        C  0.31084377  0.73979903  0.38054392     0.19300
C191        C  0.26562606  0.73286149  0.42499070    -0.55500
C192        C  0.28019395  0.74986038  0.39137565     0.08500
C193        C  0.29361545  0.69142245  0.39960985    -0.55000
C194        C  0.30839135  0.70777199  0.36602771     0.09100
H195        H  0.31583760  0.72249634  0.00821106     0.13600
H196        H  0.32278090  0.75292758  0.35219240    -0.00700
H197        H  0.24387421  0.73726834  0.43700895     0.13900
H198        H  0.29138803  0.66830242  0.39579092     0.13700
In199      In  0.49812162  0.81774663  0.48688112     1.36900
C200        C  0.01957071  0.78931259  0.06306051     0.76500
O201        O  0.45850946  0.81696669  0.03254672    -0.61900
O202        O  0.45513485  0.81904917  0.45088404    -0.52800
C203        C  0.00974953  0.87351212  0.47678267     0.69200
O204        O  0.00227024  0.86238655  0.51858584    -0.47700
C205        C  0.01846189  0.77681141  0.42815566     0.73900
O206        O  0.03216391  0.81075931  0.04384058    -0.59500
O207        O  0.49235382  0.78324715  0.42761130    -0.49600
O208        O  0.49476958  0.78435276  0.04665425    -0.56000
C209        C  0.44261037  0.81716139  0.99359596     0.84100
O210        O  0.51236687  0.85585969  0.44037632    -0.57800
O211        O  0.03435898  0.79414411  0.45190800    -0.61100
In212      In  0.35663550  0.80869230  0.00675854     1.36900
C213        C  0.34028725  0.76488803  0.45223290     0.76500
O214        O  0.39566178  0.81426270  0.95950733    -0.61900
O215        O  0.39982710  0.81118779  0.04084907    -0.57600
C216        C  0.34401660  0.86361018  0.01051456     0.69200
O217        O  0.34089813  0.84897325  0.96999658    -0.47700
C218        C  0.32512886  0.78553602  0.07765643     0.73900
O219        O  0.33419330  0.79028107  0.43889562    -0.59500
O220        O  0.35176536  0.78163522  0.07564161    -0.49600
O221        O  0.35802998  0.76256563  0.98811929    -0.56000
C222        C  0.41188959  0.81435648  0.99804009     0.84100
O223        O  0.35265540  0.84991013  0.04908022    -0.57800
O224        O  0.31497106  0.80310430  0.04585392    -0.61100
C225        C  0.28298989  0.77072872  0.19589548     0.85500
C226        C  0.29256645  0.78750166  0.14939143    -0.54800
C227        C  0.30748198  0.77146790  0.11576562     0.08400
C228        C  0.31021007  0.73953009  0.13020593     0.19300
C229        C  0.26506807  0.74554999  0.17518780    -0.55500
C230        C  0.27971635  0.72886914  0.14144276     0.08500
C231        C  0.31018637  0.75668875  0.21732616    -0.55000
C232        C  0.32400202  0.73961636  0.18276311     0.09100
H233        H  0.29027168  0.81059349  0.14578381     0.13600
H234        H  0.32215288  0.72661774  0.10170147    -0.00700
H235        H  0.24340130  0.74068813  0.18745306     0.13900
H236        H  0.31534322  0.75677066  0.25787137     0.13700
In237      In  0.49738996  0.66179159  0.23536999     1.36900
C238        C  0.01902215  0.70213888  0.17691114     0.76500
O239        O  0.49393702  0.69464019  0.29627184    -0.61900
O240        O  0.03120403  0.66854803  0.29327368    -0.52800
C241        C  0.44189589  0.66320899  0.23993717     0.69200
O242        O  0.45469530  0.66137929  0.19743836    -0.47700
C243        C  0.00738387  0.60595172  0.22602848     0.73900
O244        O  0.49284650  0.69573115  0.17547634    -0.59500
O245        O  0.99875867  0.61718168  0.26692985    -0.49600
O246        O  0.03445560  0.68508123  0.20176277    -0.56000
C247        C  0.01859273  0.68969814  0.31306427     0.84100
O248        O  0.45749972  0.66321499  0.27924253    -0.57800
O249        O  0.51189360  0.62351527  0.19010465    -0.61100
In250      In  0.35604520  0.67094782  0.25490740     1.36900
C251        C  0.33967701  0.71473137  0.20118994     0.76500
O252        O  0.31456294  0.67778500  0.29355680    -0.61900
O253        O  0.35234628  0.69682021  0.32561384    -0.52800
C254        C  0.34240413  0.61597575  0.25959650     0.69200
O255        O  0.33994141  0.63037366  0.21878202    -0.47700
C256        C  0.41120390  0.66587871  0.24435065     0.73900
O257        O  0.33283538  0.68934873  0.18846530    -0.59500
O258        O  0.39944597  0.66942608  0.28728907    -0.49600
O259        O  0.35813378  0.71706266  0.23592875    -0.56000
C260        C  0.32550515  0.69406602  0.32692032     0.84100
O261        O  0.35114857  0.62987881  0.29801193    -0.57800
O262        O  0.39469558  0.66520933  0.20619097    -0.61100
C263        C  0.03277735  0.70828035  0.35146277     0.85500
C264        C  0.04229941  0.69165697  0.39804468    -0.54800
C265        C  0.05723260  0.70789982  0.43162833     0.08400
C266        C  0.06014212  0.73981800  0.41701468     0.19300
C267        C  0.01494594  0.73340787  0.37210073    -0.55500
C268        C  0.02968277  0.75027531  0.40583293     0.08500
C269        C  0.06001920  0.72245174  0.33002938    -0.55000
C270        C  0.07390723  0.73971355  0.36443577     0.09100
H271        H  0.03991803  0.66855164  0.40180501     0.13600
H272        H  0.07219771  0.75282293  0.44545586    -0.00700
H273        H  0.49328459  0.73806460  0.35984658     0.13900
H274        H  0.06519492  0.72226150  0.28950019     0.13700
In275      In  0.24741199  0.81713872  0.31114160     1.36900
C276        C  0.26854430  0.77623317  0.36914078     0.76500
O277        O  0.24405829  0.78392223  0.25079466    -0.61900
O278        O  0.28122871  0.81062357  0.25354071    -0.52800
C279        C  0.19184190  0.81641861  0.30529356     0.69200
O280        O  0.20454778  0.81802220  0.34792777    -0.47700
C281        C  0.25875180  0.87309212  0.32144095     0.73900
O282        O  0.24234233  0.78230186  0.36989207    -0.59500
O283        O  0.25088329  0.86198472  0.27978897    -0.49600
O284        O  0.28411942  0.79384224  0.34546055    -0.56000
C285        C  0.26873237  0.78916217  0.23409407     0.84100
O286        O  0.20758582  0.81630969  0.26617798    -0.57800
O287        O  0.26172223  0.85536041  0.35758751    -0.61100
In288      In  0.10586881  0.80859373  0.29162610     1.36900
C289        C  0.08970291  0.76461759  0.34564012     0.76500
O290        O  0.06440082  0.80263052  0.25202972    -0.61900
O291        O  0.10159845  0.78182160  0.22233177    -0.52800
C292        C  0.09294108  0.86350189  0.28773299     0.69200
O293        O  0.08878731  0.84862953  0.32761645    -0.47700
C294        C  0.16109240  0.81395630  0.30091457     0.73900
O295        O  0.08371564  0.78997682  0.35938846    -0.59500
O296        O  0.14908219  0.81054077  0.25810122    -0.49600
O297        O  0.10728101  0.76236972  0.30954781    -0.56000
C298        C  0.07493048  0.78533680  0.22010443     0.84100
O299        O  0.10275623  0.85003705  0.24978848    -0.57800
O300        O  0.14478764  0.81449101  0.33931863    -0.61100
C301        C  0.18784350  0.27238767  0.19324517     0.85500
C302        C  0.19711018  0.29003216  0.14783528    -0.54800
C303        C  0.21105455  0.27456929  0.11200903     0.08400
C304        C  0.21386419  0.24228053  0.12429482     0.19300
C305        C  0.16973508  0.24777242  0.17152795    -0.55500
C306        C  0.18342456  0.23190772  0.13583221     0.08500
C307        C  0.21520070  0.25765508  0.21304919    -0.55000
C308        C  0.22831609  0.24078494  0.17667492     0.09100
H309        H  0.19346419  0.31295276  0.14475316     0.13600
H310        H  0.22501684  0.22979774  0.09415607    -0.00700
H311        H  0.14810078  0.24299927  0.18397500     0.13900
H312        H  0.22032998  0.25639325  0.25346390     0.13700
In313      In  0.00252920  0.16553916  0.05864074     1.36900
C314        C  0.46848554  0.18672001  0.49001443     0.76500
O315        O  0.48529504  0.18976327  0.12576526    -0.61900
O316        O  0.00797035  0.21287589  0.06802998    -0.52800
C317        C  0.99150313  0.10941473  0.07098422     0.69200
O318        O  0.49939386  0.12016702  0.02903190    -0.47700
C319        C  0.05834160  0.16648152  0.05689611     0.73900
O320        O  0.45946905  0.18053262  0.03411937    -0.59500
O321        O  0.04462376  0.16201853  0.09771161    -0.49600
O322        O  0.99289106  0.17715789  0.97878305    -0.56000
C323        C  0.49222620  0.21392850  0.10697376     0.84100
O324        O  0.98776208  0.12765604  0.10622841    -0.57800
O325        O  0.04349081  0.16998745  0.01720231    -0.61100
In326      In  0.14488393  0.16982831  0.55150509     1.36900
C327        C  0.16990327  0.20729610  0.11119665     0.76500
O328        O  0.17614348  0.17020015  0.48999357    -0.61900
O329        O  0.14603546  0.20456769  0.49381651    -0.52800
C330        C  0.15527936  0.11498663  0.54749353     0.69200
O331        O  0.15799969  0.12888816  0.08889375    -0.47700
C332        C  0.08924792  0.16779434  0.05539553     0.73900
O333        O  0.18392144  0.18842671  0.08792143    -0.59500
O334        O  0.10252472  0.17492658  0.51532051    -0.49600
O335        O  0.14319468  0.20430323  0.10971558    -0.56000
C336        C  0.16738557  0.19357683  0.47205543     0.84100
O337        O  0.14700452  0.12908987  0.50937881    -0.57800
O338        O  0.10448790  0.16203893  0.09386273    -0.61100
C339        C  0.45272613  0.20560423  0.45400404     0.85500
C340        C  0.44373715  0.18954394  0.40661138    -0.54800
C341        C  0.43000041  0.20622314  0.37233063     0.08400
C342        C  0.42717856  0.23784108  0.38749074     0.19300
C343        C  0.47117570  0.23099294  0.43492688    -0.55500
C344        C  0.45754811  0.24811356  0.40041103     0.08500
C345        C  0.42525750  0.21969117  0.97435993    -0.55000
C346        C  0.41230100  0.23727732  0.43923128     0.09100
H347        H  0.44686992  0.16663151  0.40149881     0.13600
H348        H  0.41599866  0.25102854  0.35837605    -0.00700
H349        H  0.99283872  0.23514790  0.44802416     0.13900
H350        H  0.41950465  0.21953947  0.01463255     0.13700
In351      In  0.24390089  0.31337276  0.48554593     1.36900
C352        C  0.22289245  0.28846552  0.06692087     0.76500
O353        O  0.20595792  0.29136386  0.45104197    -0.61900
O354        O  0.24706758  0.28007493  0.42340994    -0.52800
C355        C  0.23541241  0.37019222  0.47680224     0.69200
O356        O  0.24497604  0.35861691  0.51669682    -0.47700
C357        C  0.29951756  0.31167602  0.99179381     0.73900
O358        O  0.21569008  0.31341262  0.05341130    -0.59500
O359        O  0.28696946  0.31651886  0.44993413    -0.49600
O360        O  0.24130919  0.27656684  0.03932755    -0.56000
C361        C  0.22073400  0.27429810  0.42469554     0.84100
O362        O  0.22918863  0.35252946  0.44162111    -0.57800
O363        O  0.28362894  0.30754714  0.02987562    -0.61100
In364      In  0.38557758  0.30962631  0.00486953     1.36900
C365        C  0.39731327  0.26278805  0.45659858     0.76500
O366        O  0.42950441  0.29646004  0.02739839    -0.61900
O367        O  0.39546896  0.29616525  0.08261501    -0.52800
C368        C  0.39955712  0.36409215  0.00659461     0.69200
O369        O  0.40116780  0.34941894  0.96591349    -0.47700
C370        C  0.33025968  0.31102216  0.99634984     0.73900
O371        O  0.40247622  0.28724342  0.43715619    -0.59500
O372        O  0.34243945  0.30597325  0.03848009    -0.49600
O373        O  0.38227693  0.26256529  0.99659242    -0.56000
C374        C  0.42092289  0.28942476  0.07145990     0.84100
O375        O  0.39090426  0.35085470  0.04561275    -0.57800
O376        O  0.34644199  0.31556831  0.45862524    -0.61100
C377        C  0.43818585  0.27232392  0.10764340     0.85500
C378        C  0.46564999  0.25785679  0.08771795    -0.54800
C379        C  0.47879824  0.24081632  0.12377237     0.08400
C380        C  0.46430627  0.24202251  0.17615726     0.19300
C381        C  0.42019324  0.24751431  0.12873923    -0.55500
C382        C  0.43392434  0.23155407  0.16422117     0.08500
C383        C  0.44726952  0.28978325  0.15349839    -0.55000
C384        C  0.46126194  0.27423436  0.18911414     0.09100
H385        H  0.47077586  0.25680610  0.04728161     0.13600
H386        H  0.47548013  0.22946928  0.20615190    -0.00700
H387        H  0.39857944  0.24272500  0.11611449     0.13900
H388        H  0.44347575  0.31266212  0.15703947     0.13700
In389      In  0.25310951  0.16572349  0.24093960     1.36900
C390        C  0.21983505  0.18731498  0.31049415     0.76500
O391        O  0.29417354  0.16911354  0.28219592    -0.61900
O392        O  0.29501929  0.16319442  0.20105468    -0.52800
C393        C  0.24200367  0.10952036  0.22871957     0.69200
O394        O  0.24897092  0.12053918  0.27102005    -0.47700
C395        C  0.24186157  0.21388417  0.19284183     0.73900
O396        O  0.21034336  0.18052133  0.26692651    -0.59500
O397        O  0.25891583  0.21293486  0.23001607    -0.49600
O398        O  0.24457399  0.17833811  0.32089544    -0.56000
C399        C  0.30887024  0.16656588  0.24209996     0.84100
O400        O  0.23935444  0.12752993  0.19283347    -0.57800
O401        O  0.23396753  0.18968193  0.17537639    -0.61100
In402      In  0.39532254  0.16941218  0.24762142     1.36900
C403        C  0.42038871  0.20689829  0.18848646     0.76500
O404        O  0.35492407  0.16303038  0.20448857    -0.61900
O405        O  0.35308865  0.17344508  0.28426353    -0.52800
C406        C  0.40543758  0.11446314  0.25157830     0.69200
O407        O  0.40804659  0.12824218  0.21009314    -0.47700
C408        C  0.41719442  0.19362008  0.32743354     0.73900
O409        O  0.43438618  0.18775126  0.21107008    -0.59500
O410        O  0.39553164  0.20405098  0.30581848    -0.49600
O411        O  0.39366323  0.20417658  0.19035024    -0.56000
C412        C  0.33975929  0.16767686  0.24353733     0.84100
O413        O  0.39743960  0.12873552  0.28969055    -0.57800
O414        O  0.42681722  0.17075190  0.30876710    -0.61100
C415        C  0.20400261  0.20604036  0.34671469     0.85500
C416        C  0.17646109  0.21995075  0.32614401    -0.54800
C417        C  0.16324747  0.23733045  0.36133140     0.08400
C418        C  0.17794243  0.23791972  0.41317791     0.19300
C419        C  0.22216642  0.23154880  0.36621684    -0.55500
C420        C  0.20824745  0.24847895  0.40070385     0.08500
C421        C  0.19498809  0.18981012  0.39387629    -0.55000
C422        C  0.18087776  0.20630882  0.42800606     0.09100
H423        H  0.17080673  0.21984263  0.28581395     0.13600
H424        H  0.16654275  0.25097046  0.44224070    -0.00700
H425        H  0.24382334  0.23594349  0.35337757     0.13900
H426        H  0.19817934  0.16689290  0.39872182     0.13700
In427      In  0.49383898  0.31304129  0.31626661     1.36900
C428        C  0.47290628  0.28805063  0.23457483     0.76500
O429        O  0.03369241  0.30783237  0.27249851    -0.61900
O430        O  0.03682059  0.31591160  0.35285093    -0.52800
C431        C  0.48594098  0.37012352  0.32391864     0.69200
O432        O  0.49512255  0.35810249  0.28412736    -0.47700
C433        C  0.47043669  0.27379767  0.37665750     0.73900
O434        O  0.46414449  0.31207969  0.25027385    -0.59500
O435        O  0.99692841  0.27878163  0.37680651    -0.49600
O436        O  0.49278627  0.27713300  0.26012974    -0.56000
C437        C  0.04948365  0.31151002  0.31092182     0.84100
O438        O  0.97989351  0.35279420  0.35966053    -0.57800
O439        O  0.45580573  0.29159186  0.35169138    -0.61100
In440      In  0.13551538  0.30945539  0.29670302     1.36900
C441        C  0.14794890  0.26268976  0.34430156     0.76500
O442        O  0.09660309  0.31562853  0.34379385    -0.61900
O443        O  0.09224444  0.30534841  0.26424081    -0.52800
C444        C  0.14900478  0.36396993  0.29356248     0.69200
O445        O  0.15136276  0.34954163  0.33437178    -0.47700
C446        C  0.17064809  0.28944005  0.22963387     0.73900
O447        O  0.15291853  0.28716401  0.36395474    -0.59500
O448        O  0.14502935  0.29581507  0.21895796    -0.49600
O449        O  0.13270993  0.26234712  0.30451830    -0.56000
C450        C  0.08024457  0.31078245  0.30636947     0.84100
O451        O  0.13985506  0.35046019  0.25513049    -0.57800
O452        O  0.17948462  0.29681385  0.27341439    -0.61100
In453      In  0.17336343  0.02984562  0.03438586     1.36900
C454        C  0.12012521  0.00984169  0.04924480     0.76500
O455        O  0.17899864  0.99571408  0.47345102    -0.61900
O456        O  0.19386526  0.03706240  0.45479396    -0.52800
C457        C  0.16143452  0.08472464  0.54299187     0.69200
O458        O  0.16323092  0.07231427  0.00015735    -0.47700
C459        C  0.21012524  0.02910404  0.11392876     0.73900
O460        O  0.12545885  0.03526380  0.03645968    -0.59500
O461        O  0.21566923  0.04066839  0.07140517    -0.49600
O462        O  0.14196047  0.99412690  0.05236271    -0.56000
C463        C  0.18830385  0.01217029  0.43884772     0.84100
O464        O  0.16502617  0.06897565  0.58139760    -0.57800
O465        O  0.18854541  0.01284752  0.11262192    -0.61100
C466        C  0.01341508  0.90546115  0.47056836     0.85500
C467        C  0.03255267  0.91974804  0.01098885    -0.54800
C468        C  0.03479569  0.94876000  0.00584715     0.08400
C469        C  0.01816769  0.96089240  0.45910185     0.19300
C470        C  0.48502220  0.92124784  0.47412130    -0.55500
C471        C  0.48688233  0.95045682  0.46834919     0.08500
C472        C  0.02572716  0.91441157  0.41885463    -0.55000
C473        C  0.02844456  0.94325075  0.41190574     0.09100
H474        H  0.04306810  0.90801591  0.04147134     0.13600
H475        H  0.02090070  0.98435250  0.45444635    -0.00700
H476        H  0.46530697  0.90964407  0.48007225     0.13900
H477        H  0.03240770  0.89902003  0.39009386     0.13700
C478        C  0.09051627  0.99953023  0.06319131     0.85500
C479        C  0.09012368  0.98709206  0.11695097    -0.54800
C480        C  0.06426623  0.97745756  0.13313986     0.08400
C481        C  0.04038900  0.98060331  0.09181580     0.19300
C482        C  0.07849336  0.97623730  0.02800214    -0.55500
C483        C  0.05206220  0.96659833  0.04182028     0.08500
C484        C  0.06718178  0.02268548  0.06396447    -0.55000
C485        C  0.04052900  0.01302577  0.07882782     0.09100
H486        H  0.10891589  0.98692743  0.14144603     0.13600
H487        H  0.01947676  0.97187416  0.10415592    -0.00700
H488        H  0.08908083  0.96940428  0.49310977     0.13900
H489        H  0.07175863  0.04456972  0.05275011     0.13700
In490      In  0.07801506  0.95054172  0.28236503     1.36900
C491        C  0.13119489  0.97143974  0.29800215     0.76500
O492        O  0.05987140  0.94272863  0.20157098    -0.61900
O493        O  0.06820555  0.98528151  0.22399982    -0.52800
C494        C  0.08744267  0.89430527  0.28563435     0.69200
O495        O  0.09158595  0.90908307  0.24588417    -0.47700
C496        C  0.04238042  0.95340775  0.36372501     0.73900
O497        O  0.12596332  0.94551849  0.28848193    -0.59500
O498        O  0.03508180  0.94362720  0.32049296    -0.49600
O499        O  0.10927818  0.98704843  0.29819473    -0.56000
C500        C  0.06192132  0.96846817  0.18778407     0.84100
O501        O  0.07884865  0.90824924  0.32376325    -0.57800
O502        O  0.06601625  0.96643785  0.36307253    -0.61100
C503        C  0.23846383  0.07735049  0.22177021     0.85500
C504        C  0.22644885  0.06845748  0.16961028    -0.54800
C505        C  0.22361463  0.03957099  0.16244227     0.08400
C506        C  0.23341314  0.02186350  0.20974526     0.19300
C507        C  0.21897032  0.06299115  0.26166641    -0.55500
C508        C  0.21654151  0.03396667  0.25638348     0.08500
C509        C  0.26677133  0.06125199  0.22570326    -0.55000
C510        C  0.26475259  0.03203521  0.21927375     0.09100
H511        H  0.22005855  0.08391134  0.14074191     0.13600
H512        H  0.23054363  0.99843593  0.20478692    -0.00700
H513        H  0.20835532  0.07474831  0.29203746     0.13900
H514        H  0.28665680  0.07268601  0.23202332     0.13700
C515        C  0.16065624  0.98242857  0.31219774     0.85500
C516        C  0.16067861  0.99442042  0.36630793    -0.54800
C517        C  0.18633816  0.00419099  0.38341312     0.08400
C518        C  0.21048133  0.00174352  0.34225733     0.19300
C519        C  0.17261845  0.00620214  0.27783050    -0.55500
C520        C  0.19897049  0.01605184  0.29223504     0.08500
C521        C  0.18425608  0.95963932  0.31261396    -0.55000
C522        C  0.21069636  0.96942577  0.32841613     0.09100
H523        H  0.14177806  0.99399055  0.39048702     0.13600
H524        H  0.23131238  0.01043305  0.35526051    -0.00700
H525        H  0.16213435  0.01308907  0.24286439     0.13900
H526        H  0.17998338  0.93788288  0.30038947     0.13700
In527      In  0.42357384  0.02948092  0.26614440     1.36900
C528        C  0.37019719  0.00935478  0.25148628     0.76500
O529        O  0.43952433  0.01233299  0.18852545    -0.61900
O530        O  0.46558843  0.04146162  0.22920918    -0.52800
C531        C  0.41152274  0.08420328  0.25638820     0.69200
O532        O  0.41426085  0.07228892  0.29945605    -0.47700
C533        C  0.43889619  0.01216675  0.36161068     0.73900
O534        O  0.37548720  0.03442980  0.26644755    -0.59500
O535        O  0.43120851  0.99523841  0.32636293    -0.49600
O536        O  0.39213994  0.99394509  0.24652290    -0.56000
C537        C  0.46052827  0.02932116  0.18695083     0.84100
O538        O  0.41417892  0.06801202  0.21823134    -0.57800
O539        O  0.44267314  0.03747971  0.34639735    -0.61100
C540        C  0.26266355  0.90507816  0.32781664     0.85500
C541        C  0.23442198  0.92116432  0.32475813    -0.54800
C542        C  0.23654680  0.95035655  0.33093737     0.08400
C543        C  0.26796338  0.96046908  0.33996620     0.19300
C544        C  0.28179902  0.91934107  0.28735132    -0.55500
C545        C  0.28437001  0.94833785  0.29284120     0.08500
C546        C  0.27523428  0.91379336  0.37953585    -0.55000
C547        C  0.27820488  0.94258892  0.38687110     0.09100
H548        H  0.21453397  0.90970349  0.31893627     0.13600
H549        H  0.27086264  0.98389880  0.34495090    -0.00700
H550        H  0.29213254  0.90758450  0.25667055     0.13900
H551        H  0.28185921  0.89827241  0.40808636     0.13700
C552        C  0.34053284  0.99918800  0.23698570     0.85500
C553        C  0.31722347  0.02237385  0.23659973    -0.54800
C554        C  0.29059850  0.01286988  0.22112921     0.08400
C555        C  0.29043338  0.98052621  0.20726357     0.19300
C556        C  0.32834874  0.97563132  0.27138002    -0.55500
C557        C  0.30190379  0.96614245  0.25710319     0.08500
C558        C  0.34023735  0.98719367  0.18283934    -0.55000
C559        C  0.31443163  0.97767342  0.16602265     0.09100
H560        H  0.32178079  0.04417386  0.24850803     0.13600
H561        H  0.26952371  0.97197019  0.19444261    -0.00700
H562        H  0.33879492  0.96860406  0.30628425     0.13900
H563        H  0.35911040  0.98719989  0.15857924     0.13700
In564      In  0.32806621  0.95034842  0.01646081     1.36900
C565        C  0.38123813  0.97105882  0.00109634     0.76500
O566        O  0.31511370  0.96669089  0.43638931    -0.61900
O567        O  0.28541659  0.94199271  0.47817741    -0.52800
C568        C  0.33845972  0.89437414  0.01275303     0.69200
O569        O  0.34029481  0.90871056  0.05361498    -0.47700
C570        C  0.31232860  0.96906436  0.11096286     0.73900
O571        O  0.37613217  0.94542088  0.01296915    -0.59500
O572        O  0.32119677  0.98526773  0.07568384    -0.49600
O573        O  0.35919961  0.98645686  0.99844360    -0.56000
C574        C  0.29212990  0.95254593  0.43530675     0.84100
O575        O  0.33195826  0.90869348  0.97376638    -0.57800
O576        O  0.30742619  0.94384851  0.09607889    -0.61100
C577        C  0.98814634  0.07729009  0.07834083     0.85500
C578        C  0.01649495  0.06129243  0.07407320    -0.54800
C579        C  0.01462774  0.03209705  0.08081301     0.08400
C580        C  0.48338077  0.02184907  0.09090527     0.19300
C581        C  0.46850427  0.06273082  0.03888646    -0.55500
C582        C  0.46621232  0.03373389  0.04441605     0.08500
C583        C  0.47648740  0.06856122  0.13079585    -0.55000
C584        C  0.47382466  0.03969291  0.13826321     0.09100
H585        H  0.03627387  0.07278718  0.06721959     0.13600
H586        H  0.48060133  0.99843805  0.09609837    -0.00700
H587        H  0.45777114  0.07432800  0.00847315     0.13900
H588        H  0.47019781  0.08410021  0.15963085     0.13700
C589        C  0.41076990  0.98200157  0.48733870     0.85500
C590        C  0.43447332  0.95927601  0.48693788    -0.54800
C591        C  0.46092006  0.96928606  0.47152194     0.08400
C592        C  0.46061279  0.00162049  0.45827970     0.19300
C593        C  0.42249257  0.00571342  0.02220313    -0.55500
C594        C  0.44887247  0.01566368  0.00836286     0.08500
C595        C  0.41097322  0.99411880  0.43334483    -0.55000
C596        C  0.43665620  0.00405652  0.41683502     0.09100
H597        H  0.43024813  0.93746991  0.49851134     0.13600
H598        H  0.48141640  0.01050403  0.44567496    -0.00700
H599        H  0.41182107  0.01250144  0.05704581     0.13900
H600        H  0.39220925  0.99365179  0.40878873     0.13700
In601      In  0.16875875  0.44954434  0.78469483     1.36900
C602        C  0.11590351  0.46995802  0.79826787     0.76500
O603        O  0.18199303  0.46569357  0.86454274    -0.61900
O604        O  0.21117480  0.44072366  0.82252845    -0.52800
C605        C  0.15616438  0.39426894  0.79044553     0.69200
O606        O  0.15861158  0.40723898  0.74829955    -0.47700
C607        C  0.18458065  0.46784844  0.69035122     0.73900
O608        O  0.12087754  0.44439361  0.78626773    -0.59500
O609        O  0.17559365  0.48416859  0.72532220    -0.49600
O610        O  0.13792754  0.48568110  0.80082688    -0.56000
C611        C  0.20453489  0.45113979  0.86549184     0.84100
O612        O  0.15978542  0.40956687  0.82956485    -0.57800
O613        O  0.18953620  0.44275467  0.70551812    -0.61100
C614        C  0.01054071  0.57403044  0.72037234     0.85500
C615        C  0.48192888  0.55826352  0.72272873    -0.54800
C616        C  0.48355837  0.52903967  0.71740076     0.08400
C617        C  0.01481582  0.51857907  0.70977293     0.19300
C618        C  0.02895134  0.55997284  0.76183564    -0.55500
C619        C  0.03098409  0.53095199  0.75716781     0.08500
C620        C  0.02344087  0.56488024  0.66938300    -0.55000
C621        C  0.02576977  0.53604013  0.66283170     0.09100
H622        H  0.46206579  0.56994762  0.72739701     0.13600
H623        H  0.01732194  0.49509678  0.70542859    -0.00700
H624        H  0.03935760  0.57191717  0.79237891     0.13900
H625        H  0.03054323  0.58011584  0.64057103     0.13700
C626        C  0.08653992  0.48029122  0.81276445     0.85500
C627        C  0.06289970  0.45718222  0.81326470    -0.54800
C628        C  0.03651318  0.46674745  0.82903245     0.08400
C629        C  0.03688374  0.49905853  0.84316404     0.19300
C630        C  0.07464367  0.50394311  0.77865634    -0.55500
C631        C  0.04839253  0.51346461  0.79321895     0.08500
C632        C  0.08671365  0.49220180  0.86683652    -0.55000
C633        C  0.06113160  0.50167628  0.88416696     0.09100
H634        H  0.06697319  0.43539801  0.80092016     0.13600
H635        H  0.01614461  0.50762945  0.85631871    -0.00700
H636        H  0.08504516  0.51093679  0.74363292     0.13900
H637        H  0.10575380  0.49208186  0.89073359     0.13700
C638        C  0.23268893  0.40248612  0.97152831     0.85500
C639        C  0.26142572  0.41826100  0.97427016    -0.54800
C640        C  0.25992495  0.44753955  0.96863000     0.08400
C641        C  0.22867250  0.45807960  0.96078339     0.19300
C642        C  0.21416299  0.41688372  0.51276995    -0.55500
C643        C  0.21212439  0.44596997  0.00795767     0.08500
C644        C  0.22003828  0.41175145  0.92032772    -0.55000
C645        C  0.21785799  0.44062114  0.91374302     0.09100
H646        H  0.28118741  0.40661554  0.97917446     0.13600
H647        H  0.22627435  0.48155500  0.95624456    -0.00700
H648        H  0.20365764  0.40506114  0.54327468     0.13900
H649        H  0.21297407  0.39655959  0.89135315     0.13700
C650        C  0.15711321  0.49798422  0.56433206     0.85500
C651        C  0.18112842  0.52056910  0.56435259    -0.54800
C652        C  0.20743501  0.51054814  0.57976209     0.08400
C653        C  0.20669033  0.47830318  0.59385577     0.19300
C654        C  0.16856629  0.47396472  0.52997363    -0.55500
C655        C  0.19481139  0.46392787  0.54409775     0.08500
C656        C  0.15713506  0.48617176  0.61851045    -0.55000
C657        C  0.18266047  0.47617631  0.63523643     0.09100
H658        H  0.17725231  0.54236225  0.55203006     0.13600
H659        H  0.22738781  0.46949782  0.60674724    -0.00700
H660        H  0.15786668  0.46710095  0.99511410     0.13900
H661        H  0.13832640  0.48673000  0.64291091     0.13700
In662      In  0.07479328  0.52942659  0.53354308     1.36900
C663        C  0.12773285  0.50902915  0.55025776     0.76500
O664        O  0.06308888  0.51323121  0.61398036    -0.61900
O665        O  0.03179060  0.53516591  0.57153230    -0.52800
C666        C  0.08511462  0.58568991  0.03515032     0.69200
O667        O  0.08674467  0.57098370  0.49473261    -0.47700
C668        C  0.05957004  0.50984670  0.93947024     0.73900
O669        O  0.12291471  0.53472347  0.53837272    -0.59500
O670        O  0.07179607  0.49501007  0.97320705    -0.49600
O671        O  0.10553105  0.49357400  0.55246447    -0.56000
C672        C  0.03937421  0.52575020  0.61471912     0.84100
O673        O  0.07846628  0.57169834  0.07447801    -0.57800
O674        O  0.05104276  0.53368650  0.95592226    -0.61100
In675      In  0.41897628  0.44982516  0.51353399     1.36900
C676        C  0.36587204  0.46960496  0.49954809     0.76500
O677        O  0.44160888  0.44401225  0.59156064    -0.61900
O678        O  0.42334148  0.48401732  0.57424166    -0.52800
C679        C  0.40687201  0.39437870  0.50895170     0.69200
O680        O  0.40878368  0.40782976  0.55072859    -0.47700
C681        C  0.45476114  0.45202498  0.93291430     0.73900
O682        O  0.37108917  0.44404036  0.51122699    -0.59500
O683        O  0.46175280  0.44231070  0.97618197    -0.49600
O684        O  0.38777288  0.48553378  0.49708206    -0.56000
C685        C  0.43434174  0.46826305  0.60811165     0.84100
O686        O  0.41099348  0.40923585  0.46952475    -0.57800
O687        O  0.43174387  0.46582300  0.93339995    -0.61100
C688        C  0.26090243  0.57405213  0.57781680     0.85500
C689        C  0.27923582  0.55975962  0.53652341    -0.54800
C690        C  0.28114330  0.53076138  0.54144498     0.08400
C691        C  0.26494647  0.51863965  0.58896703     0.19300
C692        C  0.23223037  0.55841899  0.57559839    -0.55500
C693        C  0.23371883  0.52921811  0.58131343     0.08500
C694        C  0.27379487  0.56508631  0.62892255    -0.55000
C695        C  0.27601780  0.53624653  0.63574524     0.09100
H696        H  0.28964409  0.57152736  0.50583004     0.13600
H697        H  0.26734768  0.49516486  0.59354065    -0.00700
H698        H  0.21251850  0.57016931  0.57082535     0.13900
H699        H  0.28097663  0.58042990  0.65756236     0.13700
C700        C  0.33637753  0.47982568  0.48542512     0.85500
C701        C  0.32464570  0.50353674  0.51966819    -0.54800
C702        C  0.29836822  0.51311084  0.50535253     0.08400
C703        C  0.28664935  0.49872605  0.95546355     0.19300
C704        C  0.31264637  0.45678451  0.98512526    -0.55500
C705        C  0.28619342  0.46644249  0.96966104     0.08500
C706        C  0.33637588  0.49167666  0.93137483    -0.55000
C707        C  0.31079135  0.50123088  0.91425041     0.09100
H708        H  0.33519219  0.51055341  0.55458504     0.13600
H709        H  0.26589539  0.50736733  0.94252154    -0.00700
H710        H  0.31673646  0.43502445  0.99744079     0.13900
H711        H  0.35535114  0.49150808  0.90734916     0.13700
In712      In  0.32501042  0.52907752  0.76522897     1.36900
C713        C  0.37786989  0.50824425  0.74966081     0.76500
O714        O  0.30103021  0.53343740  0.84266882    -0.61900
O715        O  0.32148221  0.49461067  0.82524047    -0.52800
C716        C  0.33610690  0.58522905  0.76207010     0.69200
O717        O  0.33609626  0.57118726  0.80332451    -0.47700
C718        C  0.28949547  0.52602197  0.68403105     0.73900
O719        O  0.37320644  0.53373887  0.76308921    -0.59500
O720        O  0.28228459  0.53602474  0.72700493    -0.49600
O721        O  0.35553445  0.49306982  0.74580368    -0.56000
C722        C  0.30927540  0.50947817  0.85898790     0.84100
O723        O  0.33088626  0.57058936  0.72273676    -0.57800
O724        O  0.31273630  0.51263773  0.68505657    -0.61100
C725        C  0.48328622  0.40252936  0.82837395     0.85500
C726        C  0.46485188  0.41656920  0.78656956    -0.54800
C727        C  0.46276396  0.44571105  0.79067493     0.08400
C728        C  0.47912474  0.45822713  0.83775464     0.19300
C729        C  0.01201045  0.41835568  0.82562786    -0.55500
C730        C  0.01039176  0.44769505  0.83050488     0.08500
C731        C  0.47045755  0.41223346  0.87917461    -0.55000
C732        C  0.46820109  0.44115376  0.88503422     0.09100
H733        H  0.45435769  0.40446792  0.75633710     0.13600
H734        H  0.47666309  0.48173308  0.84172385    -0.00700
H735        H  0.03184389  0.40673603  0.82125682     0.13900
H736        H  0.46333343  0.39728664  0.90843755     0.13700
C737        C  0.40723648  0.49729901  0.73526513     0.85500
C738        C  0.40709651  0.48573449  0.68088892    -0.54800
C739        C  0.43260107  0.47599072  0.66360293     0.08400
C740        C  0.45678258  0.47799032  0.70480098     0.19300
C741        C  0.41890950  0.47317597  0.76902523    -0.55500
C742        C  0.44515756  0.46333825  0.75448139     0.08500
C743        C  0.43116588  0.51998676  0.73536845    -0.55000
C744        C  0.45742716  0.51018376  0.71939236     0.09100
H745        H  0.38817669  0.48635002  0.65673127     0.13600
H746        H  0.47746723  0.46934794  0.69149824    -0.00700
H747        H  0.40842468  0.46620694  0.80397345     0.13900
H748        H  0.42727054  0.54180461  0.74807570     0.13700
C749        C  0.03378890  0.77069126  0.60091825     0.85500
C750        C  0.06130473  0.75718179  0.57974895    -0.54800
C751        C  0.07511784  0.73999236  0.61410125     0.08400
C752        C  0.06097833  0.73941279  0.66642588     0.19300
C753        C  0.01605162  0.74514627  0.62060563    -0.55500
C754        C  0.03065217  0.72847098  0.65442696     0.08500
C755        C  0.04279812  0.78725826  0.64800288    -0.55000
C756        C  0.05768108  0.77121088  0.68154910     0.09100
H757        H  0.06664721  0.75759297  0.03929191     0.13600
H758        H  0.07290517  0.72652392  0.69497362    -0.00700
H759        H  0.49444632  0.74022346  0.60801727     0.13900
H760        H  0.04016825  0.81029028  0.65212397     0.13700
In761      In  0.24741366  0.66153337  0.56106592     1.36900
C762        C  0.26940464  0.68943724  0.98418345     0.76500
O763        O  0.20771993  0.66203284  0.51587481    -0.61900
O764        O  0.20450494  0.66134683  0.59766067    -0.52800
C765        C  0.25772399  0.60590407  0.57167966     0.69200
O766        O  0.25027439  0.61695189  0.52989144    -0.47700
C767        C  0.26829159  0.70232615  0.61937170     0.73900
O768        O  0.28204574  0.66856487  0.50474209    -0.59500
O769        O  0.24210663  0.69593257  0.62002796    -0.49600
O770        O  0.24443683  0.69405501  0.49978444    -0.56000
C771        C  0.19190893  0.66254367  0.55489703     0.84100
O772        O  0.26088494  0.62355629  0.60798456    -0.57800
O773        O  0.28401826  0.68498617  0.59574313    -0.61100
In774      In  0.10602919  0.67106944  0.04071643     1.36900
C775        C  0.09071220  0.71514702  0.59504209     0.76500
O776        O  0.14482685  0.66489424  0.58853845    -0.61900
O777        O  0.14934958  0.66880862  0.00739697    -0.52800
C778        C  0.09149564  0.61639168  0.03689427     0.69200
O779        O  0.08910872  0.63112011  0.57738372    -0.47700
C780        C  0.07472375  0.69406371  0.96991251     0.73900
O781        O  0.08437384  0.68979416  0.60857557    -0.59500
O782        O  0.10161887  0.69642208  0.96979140    -0.49600
O783        O  0.10832023  0.71738403  0.55890621    -0.56000
C784        C  0.16121781  0.66527764  0.55026753     0.84100
O785        O  0.10049190  0.62986825  0.99825164    -0.57800
O786        O  0.06405783  0.67818754  0.00406861    -0.61100
C787        C  0.28371424  0.70803690  0.94599426     0.85500
C788        C  0.31068917  0.72262288  0.46766711    -0.54800
C789        C  0.32447627  0.73996586  0.93333149     0.08400
C790        C  0.31084631  0.73979544  0.88055330     0.19300
C791        C  0.26563453  0.73286357  0.92502142    -0.55500
C792        C  0.28019994  0.74986177  0.89140261     0.08500
C793        C  0.29361122  0.69142087  0.89961633    -0.55000
C794        C  0.30838566  0.70776965  0.86603133     0.09100
H795        H  0.31581915  0.72250880  0.50820787     0.13600
H796        H  0.32278100  0.75292323  0.85219872    -0.00700
H797        H  0.24388460  0.73727338  0.93705027     0.13900
H798        H  0.29138014  0.66830190  0.89579488     0.13700
In799      In  0.49812485  0.81774503  0.98686176     1.36900
C800        C  0.01956645  0.78931113  0.56307523     0.76500
O801        O  0.45850517  0.81697656  0.53256501    -0.61900
O802        O  0.45513732  0.81905487  0.95086748    -0.52800
C803        C  0.00974841  0.87351197  0.97676101     0.69200
O804        O  0.00227182  0.86238524  0.01856478    -0.47700
C805        C  0.01846306  0.77680633  0.92814156     0.73900
O806        O  0.03216356  0.81075367  0.54384953    -0.59500
O807        O  0.49235667  0.78324882  0.92758500    -0.49600
O808        O  0.49476262  0.78435737  0.54667742    -0.56000
C809        C  0.44260686  0.81716310  0.49361285     0.84100
O810        O  0.51236822  0.85585958  0.94035493    -0.57800
O811        O  0.03436097  0.79413513  0.95190111    -0.61100
In812      In  0.35662954  0.80869381  0.50676601     1.36900
C813        C  0.34029843  0.76488084  0.95223227     0.76500
O814        O  0.39565982  0.81425482  0.45952067    -0.61900
O815        O  0.39982064  0.81119781  0.54086401    -0.57600
C816        C  0.34401134  0.86361129  0.51050789     0.69200
O817        O  0.34091077  0.84897629  0.46998364    -0.47700
C818        C  0.32512822  0.78553684  0.57767452     0.73900
O819        O  0.33420367  0.79027298  0.93889011    -0.59500
O820        O  0.35176360  0.78163102  0.57564418    -0.49600
O821        O  0.35801819  0.76256953  0.48811978    -0.56000
C822        C  0.41188571  0.81435766  0.49805540     0.84100
O823        O  0.35262798  0.84990869  0.54908649    -0.57800
O824        O  0.31496857  0.80310794  0.54587863    -0.61100
C825        C  0.28298870  0.77072619  0.69591939     0.85500
C826        C  0.29256964  0.78750249  0.64942069    -0.54800
C827        C  0.30748508  0.77147000  0.61579195     0.08400
C828        C  0.31020989  0.73953120  0.63022488     0.19300
C829        C  0.26506593  0.74555059  0.67520112    -0.55500
C830        C  0.27971450  0.72887216  0.64145193     0.08500
C831        C  0.31018246  0.75668259  0.71734988    -0.55000
C832        C  0.32399874  0.73961273  0.68278495     0.09100
H833        H  0.29027547  0.81059467  0.64581686     0.13600
H834        H  0.32215348  0.72662025  0.60171931    -0.00700
H835        H  0.24339786  0.74068961  0.68746089     0.13900
H836        H  0.31533803  0.75676136  0.75789776     0.13700
In837      In  0.49738259  0.66178458  0.73535917     1.36900
C838        C  0.01901782  0.70213060  0.67690698     0.76500
O839        O  0.49393539  0.69464146  0.79624853    -0.61900
O840        O  0.03119452  0.66853746  0.79326861    -0.52800
C841        C  0.44188985  0.66321239  0.73993341     0.69200
O842        O  0.45468736  0.66139126  0.69743160    -0.47700
C843        C  0.00737105  0.60594309  0.72602020     0.73900
O844        O  0.49284547  0.69571043  0.67543966    -0.59500
O845        O  0.99873849  0.61717302  0.76691624    -0.49600
O846        O  0.03444990  0.68508120  0.70177936    -0.56000
C847        C  0.01858808  0.68969334  0.81304982     0.84100
O848        O  0.45749483  0.66320755  0.77923712    -0.57800
O849        O  0.51188875  0.62350697  0.69010002    -0.61100
In850      In  0.35604018  0.67094216  0.75491562     1.36900
C851        C  0.33967392  0.71472795  0.70120867     0.76500
O852        O  0.31455503  0.67778812  0.79355164    -0.61900
O853        O  0.35234146  0.69680525  0.82563227    -0.52800
C854        C  0.34240003  0.61596937  0.75958938     0.69200
O855        O  0.33994448  0.63036799  0.71877439    -0.47700
C856        C  0.41119844  0.66588100  0.74435217     0.73900
O857        O  0.33283696  0.68934597  0.68847120    -0.59500
O858        O  0.39944082  0.66940941  0.78729593    -0.49600
O859        O  0.35812484  0.71705827  0.73595799    -0.56000
C860        C  0.32549902  0.69406114  0.82692602     0.84100
O861        O  0.35113592  0.62987214  0.79801093    -0.57800
O862        O  0.39469014  0.66522702  0.70619215    -0.61100
C863        C  0.03277463  0.70827430  0.85144894     0.85500
C864        C  0.04229703  0.69164883  0.89802903    -0.54800
C865        C  0.05723036  0.70789026  0.93161476     0.08400
C866        C  0.06013989  0.73980889  0.91700477     0.19300
C867        C  0.01494375  0.73340163  0.87208947    -0.55500
C868        C  0.02968111  0.75026772  0.90582316     0.08500
C869        C  0.06001688  0.72244641  0.83001696    -0.55000
C870        C  0.07390505  0.73970688  0.86442629     0.09100
H871        H  0.03991573  0.66854379  0.90178667     0.13600
H872        H  0.07219579  0.75281263  0.94544769    -0.00700
H873        H  0.49328293  0.73805998  0.85983418     0.13900
H874        H  0.06519236  0.72225808  0.78948851     0.13700
In875      In  0.24741282  0.81713642  0.81116999     1.36900
C876        C  0.26854876  0.77623472  0.86917170     0.76500
O877        O  0.24405763  0.78391836  0.75082376    -0.61900
O878        O  0.28123034  0.81061649  0.75357399    -0.52800
C879        C  0.19184175  0.81642420  0.80531671     0.69200
O880        O  0.20454657  0.81802280  0.84795242    -0.47700
C881        C  0.25875494  0.87308730  0.82146250     0.73900
O882        O  0.24234553  0.78229816  0.86991600    -0.59500
O883        O  0.25090471  0.86197610  0.77980302    -0.49600
O884        O  0.28412283  0.79384759  0.84549817    -0.56000
C885        C  0.26873211  0.78915742  0.73412319     0.84100
O886        O  0.20758722  0.81631729  0.76620323    -0.57800
O887        O  0.26170699  0.85536025  0.85762134    -0.61100
In888      In  0.10586811  0.80859402  0.79163669     1.36900
C889        C  0.08970074  0.76461285  0.84563709     0.76500
O890        O  0.06440355  0.80264253  0.75202204    -0.61900
O891        O  0.10159475  0.78180986  0.72235397    -0.52800
C892        C  0.09293700  0.86350191  0.78775020     0.69200
O893        O  0.08878211  0.84862775  0.82763178    -0.47700
C894        C  0.16109195  0.81396239  0.80093323     0.73900
O895        O  0.08371385  0.78997111  0.85939301    -0.59500
O896        O  0.14908315  0.81055140  0.75811727    -0.49600
O897        O  0.10727954  0.76236815  0.80954534    -0.56000
C898        C  0.07492853  0.78533618  0.72011356     0.84100
O899        O  0.10275422  0.85003863  0.74980530    -0.57800
O900        O  0.14478566  0.81449061  0.83933562    -0.61100
C901        C  0.18784341  0.27238342  0.69325747     0.85500
C902        C  0.19711423  0.29003096  0.64785318    -0.54800
C903        C  0.21106182  0.27457072  0.61202655     0.08400
C904        C  0.21387121  0.24228111  0.62430836     0.19300
C905        C  0.16973754  0.24776887  0.67152947    -0.55500
C906        C  0.18343083  0.23190719  0.63583331     0.08500
C907        C  0.21519840  0.25765039  0.71306660    -0.55000
C908        C  0.22831682  0.24078191  0.67669441     0.09100
H909        H  0.19346587  0.31295171  0.64477299     0.13600
H910        H  0.22502727  0.22980044  0.59417230    -0.00700
H911        H  0.14810281  0.24299463  0.68396848     0.13900
H912        H  0.22032314  0.25638577  0.75348324     0.13700
In913      In  0.00253711  0.16555035  0.55867199     1.36900
C914        C  0.46848178  0.18671232  0.98997919     0.76500
O915        O  0.48529670  0.18977395  0.62579248    -0.61900
O916        O  0.00798482  0.21288584  0.56807264    -0.52800
C917        C  0.99151433  0.10942268  0.57100456     0.69200
O918        O  0.49939786  0.12017906  0.52905118    -0.47700
C919        C  0.05834771  0.16649916  0.55690842     0.73900
O920        O  0.45947449  0.18054066  0.53415580    -0.59500
O921        O  0.04463501  0.16202865  0.59772702    -0.49600
O922        O  0.99289693  0.17717082  0.47881873    -0.56000
C923        C  0.49223258  0.21393897  0.60700542     0.84100
O924        O  0.98778146  0.12766124  0.60625657    -0.57800
O925        O  0.04349272  0.17000858  0.51722078    -0.61100
In926      In  0.14488043  0.16981939  0.05152236     1.36900
C927        C  0.16991248  0.20729765  0.61118600     0.76500
O928        O  0.17616089  0.17020632  0.99004596    -0.61900
O929        O  0.14602547  0.20455143  0.99381835    -0.52800
C930        C  0.15528147  0.11497868  0.04750160     0.69200
O931        O  0.15802402  0.12890308  0.58887247    -0.47700
C932        C  0.08925310  0.16781370  0.55539744     0.73900
O933        O  0.18393111  0.18844634  0.58786502    -0.59500
O934        O  0.10252388  0.17489354  0.01531556    -0.49600
O935        O  0.14320489  0.20428940  0.60974071    -0.56000
C936        C  0.16738989  0.19357205  0.97208362     0.84100
O937        O  0.14703215  0.12908879  0.00937717    -0.57800
O938        O  0.10449660  0.16204293  0.59385218    -0.61100
C939        C  0.45272599  0.20560295  0.95397303     0.85500
C940        C  0.44372887  0.18954618  0.90658297    -0.54800
C941        C  0.42999261  0.20622883  0.87230766     0.08400
C942        C  0.42717804  0.23784768  0.88747098     0.19300
C943        C  0.47117925  0.23098836  0.93489086    -0.55500
C944        C  0.45755126  0.24811331  0.90038110     0.08500
C945        C  0.42525216  0.21968645  0.47438093    -0.55000
C946        C  0.41230655  0.23728642  0.93921780     0.09100
H947        H  0.44685733  0.16663329  0.90146693     0.13600
H948        H  0.41599748  0.25103801  0.85836141    -0.00700
H949        H  0.99284481  0.23513871  0.94798253     0.13900
H950        H  0.41949603  0.21953577  0.51465138     0.13700
In951      In  0.24390169  0.31336712  0.98554130     1.36900
C952        C  0.22289670  0.28846822  0.56693450     0.76500
O953        O  0.20596088  0.29134506  0.95106661    -0.61900
O954        O  0.24706572  0.28008101  0.92338050    -0.52800
C955        C  0.23541263  0.37018562  0.97680309     0.69200
O956        O  0.24498193  0.35861050  0.01669341    -0.47700
C957        C  0.29951825  0.31168662  0.49178028     0.73900
O958        O  0.21570993  0.31342377  0.55344836    -0.59500
O959        O  0.28697232  0.31651181  0.94994523    -0.49600
O960        O  0.24129382  0.27656116  0.53931127    -0.56000
C961        C  0.22073540  0.27429037  0.92469637     0.84100
O962        O  0.22918545  0.35252338  0.94162346    -0.57800
O963        O  0.28363269  0.30756029  0.52986678    -0.61100
In964      In  0.38557758  0.30962182  0.50485438     1.36900
C965        C  0.39732120  0.26279695  0.95659684     0.76500
O966        O  0.42950323  0.29645179  0.52738245    -0.61900
O967        O  0.39546801  0.29616544  0.58260068    -0.52800
C968        C  0.39957023  0.36408205  0.50658796     0.69200
O969        O  0.40118309  0.34940995  0.46590549    -0.47700
C970        C  0.33026055  0.31103084  0.49633139     0.73900
O971        O  0.40248285  0.28725483  0.93716341    -0.59500
O972        O  0.34243969  0.30596964  0.53845713    -0.49600
O973        O  0.38226794  0.26256071  0.49659282    -0.56000
C974        C  0.42092162  0.28942269  0.57144696     0.84100
O975        O  0.39091000  0.35084570  0.54560208    -0.57800
O976        O  0.34644063  0.31555177  0.95864066    -0.61100
C977        C  0.43818400  0.27232730  0.60763797     0.85500
C978        C  0.46565283  0.25786233  0.58772606    -0.54800
C979        C  0.47879933  0.24082657  0.62379062     0.08400
C980        C  0.46430035  0.24203452  0.67616785     0.19300
C981        C  0.42019245  0.24751713  0.62873089    -0.55500
C982        C  0.43392127  0.23156110  0.66422049     0.08500
C983        C  0.44725973  0.28979163  0.65349248    -0.55000
C984        C  0.46125200  0.27424709  0.68911428     0.09100
H985        H  0.47078349  0.25680907  0.54729334     0.13600
H986        H  0.47547219  0.22948464  0.70617004    -0.00700
H987        H  0.39858136  0.24272322  0.61609643     0.13900
H988        H  0.44346531  0.31266970  0.65702500     0.13700
In989      In  0.25310770  0.16571732  0.74095652     1.36900
C990        C  0.21983250  0.18729741  0.81051770     0.76500
O991        O  0.29417498  0.16913409  0.78218808    -0.61900
O992        O  0.29501128  0.16319107  0.70105115    -0.52800
C993        C  0.24201388  0.10951207  0.72873464     0.69200
O994        O  0.24899280  0.12052856  0.77103139    -0.47700
C995        C  0.24185659  0.21387942  0.69286605     0.73900
O996        O  0.21034041  0.18050528  0.76694949    -0.59500
O997        O  0.25890685  0.21292911  0.73004574    -0.49600
O998        O  0.24457150  0.17831998  0.82091820    -0.56000
C999        C  0.30886652  0.16657892  0.74208761     0.84100
O1000       O  0.23935115  0.12752404  0.69285576    -0.57800
O1001       O  0.23396314  0.18967769  0.67539706    -0.61100
In1002     In  0.39531574  0.16941763  0.74760004     1.36900
C1003       C  0.42038609  0.20690277  0.68847581     0.76500
O1004       O  0.35491752  0.16303735  0.70446666    -0.61900
O1005       O  0.35308543  0.17346954  0.78423617    -0.52800
C1006       C  0.40542063  0.11446632  0.75156737     0.69200
O1007       O  0.40803517  0.12824328  0.71008137    -0.47700
C1008       C  0.41718643  0.19362709  0.82741000     0.73900
O1009       O  0.43438295  0.18775809  0.71106640    -0.59500
O1010       O  0.39551614  0.20405096  0.80580840    -0.49600
O1011       O  0.39366066  0.20417630  0.69032212    -0.56000
C1012       C  0.33975482  0.16769369  0.74351473     0.84100
O1013       O  0.39741960  0.12874124  0.78967478    -0.57800
O1014       O  0.42681700  0.17076515  0.80873119    -0.61100
C1015       C  0.20400195  0.20602555  0.84673662     0.85500
C1016       C  0.17645964  0.21993557  0.82616621    -0.54800
C1017       C  0.16324821  0.23731898  0.86135084     0.08400
C1018       C  0.17794540  0.23791079  0.91319524     0.19300
C1019       C  0.22216738  0.23153531  0.86622915    -0.55500
C1020       C  0.20825002  0.24846848  0.90071345     0.08500
C1021       C  0.19498964  0.18979953  0.89390396    -0.55000
C1022       C  0.18088137  0.20630127  0.92803138     0.09100
H1023       H  0.17080375  0.21982470  0.78583707     0.13600
H1024       H  0.16654718  0.25096330  0.94225669    -0.00700
H1025       H  0.24382376  0.23592863  0.85338552     0.13900
H1026       H  0.19818033  0.16688236  0.89875513     0.13700
In1027     In  0.49384017  0.31305156  0.81625446     1.36900
C1028       C  0.47290286  0.28806823  0.73456365     0.76500
O1029       O  0.03369526  0.30785029  0.77248782    -0.61900
O1030       O  0.03681908  0.31591998  0.85284409    -0.52800
C1031       C  0.48594607  0.37012882  0.82392935     0.69200
O1032       O  0.49511706  0.35811180  0.78412641    -0.47700
C1033       C  0.47043976  0.27379860  0.87662990     0.73900
O1034       O  0.46413951  0.31209578  0.75026798    -0.59500
O1035       O  0.99693110  0.27878492  0.87678258    -0.49600
O1036       O  0.49279017  0.27715382  0.76010481    -0.56000
C1037       C  0.04948424  0.31152157  0.81091630     0.84100
O1038       O  0.97990393  0.35279765  0.85967087    -0.57800
O1039       O  0.45580834  0.29159335  0.85166592    -0.61100
In1040     In  0.13551624  0.30944878  0.79672189     1.36900
C1041       C  0.14795000  0.26267916  0.84431827     0.76500
O1042       O  0.09660113  0.31562539  0.84380410    -0.61900
O1043       O  0.09224751  0.30535290  0.76424729    -0.52800
C1044       C  0.14900909  0.36396505  0.79357312     0.69200
O1045       O  0.15135578  0.34954094  0.83438960    -0.47700
C1046       C  0.17064595  0.28943267  0.72964868     0.73900
O1047       O  0.15291368  0.28715287  0.86397846    -0.59500
O1048       O  0.14502373  0.29579812  0.71898078    -0.49600
O1049       O  0.13271626  0.26233828  0.80452896    -0.56000
C1050       C  0.08024509  0.31078721  0.80637312     0.84100
O1051       O  0.13987063  0.35045005  0.75513862    -0.57800
O1052       O  0.17948558  0.29681420  0.77342388    -0.61100
In1053     In  0.17336369  0.02985418  0.53438229     1.36900
C1054       C  0.12012822  0.00984520  0.54923674     0.76500
O1055       O  0.17900081  0.99570435  0.97345614    -0.61900
O1056       O  0.19386898  0.03705194  0.95479998    -0.52800
C1057       C  0.16143588  0.08471638  0.04299757     0.69200
O1058       O  0.16324214  0.07232485  0.50015175    -0.47700
C1059       C  0.21012407  0.02910670  0.61393077     0.73900
O1060       O  0.12545952  0.03526781  0.53645130    -0.59500
O1061       O  0.21567347  0.04066635  0.57140499    -0.49600
O1062       O  0.14196438  0.99413147  0.55235077    -0.56000
C1063       C  0.18830777  0.01215997  0.93885342     0.84100
O1064       O  0.16503904  0.06896935  0.08140223    -0.57800
O1065       O  0.18853725  0.01285998  0.61262529    -0.61100
C1066       C  0.01340867  0.90546193  0.97054817     0.85500
C1067       C  0.03255457  0.91974716  0.51101520    -0.54800
C1068       C  0.03480144  0.94875861  0.50586862     0.08400
C1069       C  0.01815433  0.96089445  0.95909101     0.19300
C1070       C  0.48501519  0.92124605  0.97411650    -0.55500
C1071       C  0.48687083  0.95045478  0.96834642     0.08500
C1072       C  0.02571269  0.91441708  0.91883046    -0.55000
C1073       C  0.02842760  0.94325716  0.91188922     0.09100
H1074       H  0.04306498  0.90801553  0.54150400     0.13600
H1075       H  0.02088527  0.98435496  0.95443902    -0.00700
H1076       H  0.46529658  0.90963810  0.98007491     0.13900
H1077       H  0.03239358  0.89902828  0.89006507     0.13700
C1078       C  0.09052117  0.99953311  0.56319224     0.85500
C1079       C  0.09013230  0.98710278  0.61695746    -0.54800
C1080       C  0.06427624  0.97746856  0.63315522     0.08400
C1081       C  0.04039647  0.98060700  0.59183325     0.19300
C1082       C  0.07849858  0.97623464  0.52801625    -0.55500
C1083       C  0.05206861  0.96659636  0.54184102     0.08500
C1084       C  0.06718527  0.02268684  0.56395896    -0.55000
C1085       C  0.04053400  0.01302825  0.57883287     0.09100
H1086       H  0.10892590  0.98694281  0.64144841     0.13600
H1087       H  0.01948495  0.97187888  0.60418033    -0.00700
H1088       H  0.08907686  0.96941020  0.99309611     0.13900
H1089       H  0.07176033  0.04456963  0.55273383     0.13700
In1090     In  0.07801358  0.95054383  0.78237966     1.36900
C1091       C  0.13119516  0.97143481  0.79801213     0.76500
O1092       O  0.05982231  0.94275463  0.70160777    -0.61900
O1093       O  0.06827312  0.98529115  0.72400383    -0.52800
C1094       C  0.08743836  0.89430581  0.78565229     0.69200
O1095       O  0.09156892  0.90908102  0.74589491    -0.47700
C1096       C  0.04237080  0.95341956  0.86372143     0.73900
O1097       O  0.12596269  0.94551571  0.78847020    -0.59500
O1098       O  0.03506813  0.94365722  0.82047900    -0.49600
O1099       O  0.10927829  0.98704356  0.79823199    -0.56000
C1100       C  0.06193486  0.96848725  0.68780456     0.84100
O1101       O  0.07885821  0.90825309  0.82378745    -0.57800
O1102       O  0.06601703  0.96643035  0.86308932    -0.61100
C1103       C  0.23847168  0.07734270  0.72178006     0.85500
C1104       C  0.22645469  0.06845393  0.66961917    -0.54800
C1105       C  0.22361731  0.03956840  0.66244511     0.08400
C1106       C  0.23341508  0.02185662  0.70974476     0.19300
C1107       C  0.21897799  0.06298292  0.76167543    -0.55500
C1108       C  0.21654501  0.03395905  0.75638667     0.08500
C1109       C  0.26677726  0.06124160  0.72570740    -0.55000
C1110       C  0.26475580  0.03202516  0.71927406     0.09100
H1111       H  0.22006505  0.08391030  0.64075374     0.13600
H1112       H  0.23054445  0.99842967  0.70478217    -0.00700
H1113       H  0.20836578  0.07473931  0.79204979     0.13900
H1114       H  0.28666298  0.07267416  0.73202724     0.13700
C1115       C  0.16065797  0.98242162  0.81220285     0.85500
C1116       C  0.16068233  0.99441112  0.86631444    -0.54800
C1117       C  0.18634198  0.00418124  0.88341834     0.08400
C1118       C  0.21048380  0.00173553  0.84225964     0.19300
C1119       C  0.17261950  0.00619668  0.77783672    -0.55500
C1120       C  0.19897271  0.01604499  0.79223898     0.08500
C1121       C  0.18425756  0.95963238  0.81261336    -0.55000
C1122       C  0.21069817  0.96941864  0.82841442     0.09100
H1123       H  0.14178235  0.99398061  0.89049561     0.13600
H1124       H  0.23131535  0.01042484  0.85526265    -0.00700
H1125       H  0.16213472  0.01308458  0.74287266     0.13900
H1126       H  0.17998434  0.93787548  0.80038761     0.13700
In1127     In  0.42356656  0.02948713  0.76615530     1.36900
C1128       C  0.37019573  0.00935009  0.75150317     0.76500
O1129       O  0.43952682  0.01234274  0.68853864    -0.61900
O1130       O  0.46558254  0.04147690  0.72922534    -0.52800
C1131       C  0.41150698  0.08420689  0.75638465     0.69200
O1132       O  0.41425660  0.07229866  0.79945533    -0.47700
C1133       C  0.43888193  0.01217560  0.86162419     0.73900
O1134       O  0.37548057  0.03442579  0.76646485    -0.59500
O1135       O  0.43123156  0.99524130  0.82635977    -0.49600
O1136       O  0.39214085  0.99394435  0.74653989    -0.56000
C1137       C  0.46052907  0.02933299  0.68696677     0.84100
O1138       O  0.41415595  0.06801066  0.71823225    -0.57800
O1139       O  0.44262301  0.03749732  0.84643055    -0.61100
C1140       C  0.26266546  0.90507283  0.82783149     0.85500
C1141       C  0.23442423  0.92115822  0.82475884    -0.54800
C1142       C  0.23654846  0.95035050  0.83093562     0.08400
C1143       C  0.26796415  0.96046379  0.83997096     0.19300
C1144       C  0.28180540  0.91933241  0.78736941    -0.55500
C1145       C  0.28437391  0.94832982  0.79285005     0.08500
C1146       C  0.27522961  0.91379064  0.87955333    -0.55000
C1147       C  0.27820002  0.94258617  0.88688461     0.09100
H1148       H  0.21453649  0.90969693  0.81893283     0.13600
H1149       H  0.27086329  0.98389429  0.84495201    -0.00700
H1150       H  0.29214125  0.90757402  0.75669610     0.13900
H1151       H  0.28185053  0.89827107  0.90810893     0.13700
C1152       C  0.34053477  0.99917977  0.73699656     0.85500
C1153       C  0.31722414  0.02236342  0.73660973    -0.54800
C1154       C  0.29060102  0.01285886  0.72113128     0.08400
C1155       C  0.29043918  0.98051563  0.70726081     0.19300
C1156       C  0.32835154  0.97562113  0.77138523    -0.55500
C1157       C  0.30190793  0.96613119  0.75710477     0.08500
C1158       C  0.34024469  0.98718872  0.68284836    -0.55000
C1159       C  0.31444106  0.97766840  0.66602099     0.09100
H1160       H  0.32177956  0.04416197  0.74852417     0.13600
H1161       H  0.26953014  0.97195969  0.69443508    -0.00700
H1162       H  0.33879603  0.96859519  0.80629239     0.13900
H1163       H  0.35911914  0.98719958  0.65859426     0.13700
In1164     In  0.32807588  0.95035156  0.51644213     1.36900
C1165       C  0.38124858  0.97106059  0.50108036     0.76500
O1166       O  0.31510115  0.96669315  0.93641374    -0.61900
O1167       O  0.28540969  0.94198199  0.97819183    -0.52800
C1168       C  0.33846135  0.89437625  0.51274032     0.69200
O1169       O  0.34027837  0.90870995  0.55360726    -0.47700
C1170       C  0.31234479  0.96907068  0.61095123     0.73900
O1171       O  0.37614333  0.94542449  0.51297092    -0.59500
O1172       O  0.32125258  0.98526587  0.57569159    -0.49600
O1173       O  0.35920873  0.98645603  0.49840435    -0.56000
C1174       C  0.29212062  0.95254278  0.93532515     0.84100
O1175       O  0.33198568  0.90869935  0.47374443    -0.57800
O1176       O  0.30740012  0.94386743  0.59604152    -0.61100
C1177       C  0.98815545  0.07729672  0.57835484     0.85500
C1178       C  0.01650259  0.06129673  0.57408339    -0.54800
C1179       C  0.01463347  0.03210112  0.58082293     0.08400
C1180       C  0.48338583  0.02185559  0.59091852     0.19300
C1181       C  0.46851123  0.06273833  0.53890088    -0.55500
C1182       C  0.46621820  0.03374073  0.54442678     0.08500
C1183       C  0.47649773  0.06856840  0.63081065    -0.55000
C1184       C  0.47383152  0.03970082  0.63827909     0.09100
H1185       H  0.03628153  0.07278998  0.56722814     0.13600
H1186       H  0.48060577  0.99844403  0.59611193    -0.00700
H1187       H  0.45777923  0.07433692  0.50848607     0.13900
H1188       H  0.47020943  0.08410832  0.65964578     0.13700
C1189       C  0.41075819  0.98199808  0.98734700     0.85500
C1190       C  0.43446115  0.95927202  0.98693839    -0.54800
C1191       C  0.46090700  0.96928138  0.97151965     0.08400
C1192       C  0.46059941  0.00161561  0.95827872     0.19300
C1193       C  0.42250070  0.00571864  0.52219562    -0.55500
C1194       C  0.44888197  0.01566978  0.50836329     0.08500
C1195       C  0.41095820  0.99411749  0.93335341    -0.55000
C1196       C  0.43664089  0.00405503  0.91684165     0.09100
H1197       H  0.43023629  0.93746049  0.99851401     0.13600
H1198       H  0.48140181  0.01049970  0.94567026    -0.00700
H1199       H  0.41182624  0.01250638  0.55703405     0.13900
H1200       H  0.39219252  0.99365372  0.90880083     0.13700
In1201     In  0.66875164  0.44954725  0.28470044     1.36900
C1202       C  0.61589598  0.46995618  0.29828303     0.76500
O1203       O  0.68198622  0.46569422  0.36455024    -0.61900
O1204       O  0.71117080  0.44073204  0.32252579    -0.52800
C1205       C  0.65616012  0.39427287  0.29044088     0.69200
O1206       O  0.65856584  0.40725451  0.24829912    -0.47700
C1207       C  0.68457595  0.46784565  0.19035736     0.73900
O1208       O  0.62087120  0.44439179  0.28628692    -0.59500
O1209       O  0.67559270  0.48416918  0.22532654    -0.49600
O1210       O  0.63791903  0.48568064  0.30084170    -0.56000
C1211       C  0.70453231  0.45114616  0.36549184     0.84100
O1212       O  0.65982315  0.40955830  0.32956322    -0.57800
O1213       O  0.68952792  0.44275179  0.20552710    -0.61100
C1214       C  0.51055111  0.57403907  0.22037861     0.85500
C1215       C  0.98193916  0.55827378  0.22273458    -0.54800
C1216       C  0.98356412  0.52905068  0.21740550     0.08400
C1217       C  0.51481993  0.51858722  0.20977745     0.19300
C1218       C  0.52896042  0.55997898  0.26184118    -0.55500
C1219       C  0.53098803  0.53095782  0.25717366     0.08500
C1220       C  0.52345036  0.56488770  0.16938866    -0.55000
C1221       C  0.52577530  0.53604730  0.16283630     0.09100
H1222       H  0.96206720  0.56996433  0.22740559     0.13600
H1223       H  0.51732328  0.49510453  0.20543293    -0.00700
H1224       H  0.53936774  0.57192180  0.29238571     0.13900
H1225       H  0.53055409  0.58012322  0.14057587     0.13700
C1226       C  0.58653217  0.48028853  0.31277391     0.85500
C1227       C  0.56289038  0.45718109  0.31326368    -0.54800
C1228       C  0.53650372  0.46674679  0.32902960     0.08400
C1229       C  0.53687574  0.49905784  0.34316697     0.19300
C1230       C  0.57464082  0.50394347  0.27866898    -0.55500
C1231       C  0.54839010  0.51346657  0.29322736     0.08500
C1232       C  0.58670365  0.49219537  0.36684708    -0.55000
C1233       C  0.56112200  0.50167164  0.38417466     0.09100
H1234       H  0.56696315  0.43539822  0.30091510     0.13600
H1235       H  0.51613633  0.50762945  0.35631877    -0.00700
H1236       H  0.58504618  0.51093909  0.24364833     0.13900
H1237       H  0.60574334  0.49207377  0.39074623     0.13700
C1238       C  0.73269130  0.40249348  0.47152523     0.85500
C1239       C  0.76142918  0.41826655  0.47426671    -0.54800
C1240       C  0.75993074  0.44754537  0.46862668     0.08400
C1241       C  0.72867879  0.45808748  0.46077753     0.19300
C1242       C  0.71415960  0.41687375  0.01277414    -0.55500
C1243       C  0.71212949  0.44598005  0.50795196     0.08500
C1244       C  0.72004142  0.41175898  0.42032441    -0.55000
C1245       C  0.71786183  0.44062870  0.41373862     0.09100
H1246       H  0.78119002  0.40661965  0.47917352     0.13600
H1247       H  0.72628264  0.48156326  0.45623738    -0.00700
H1248       H  0.70365565  0.40505026  0.04327708     0.13900
H1249       H  0.71297488  0.39656666  0.39135156     0.13700
C1250       C  0.65710963  0.49797498  0.06433255     0.85500
C1251       C  0.68112593  0.52055825  0.06434954    -0.54800
C1252       C  0.70743166  0.51053769  0.07976269     0.08400
C1253       C  0.70668554  0.47829345  0.09386100     0.19300
C1254       C  0.66856132  0.47395285  0.02997950    -0.55500
C1255       C  0.69480587  0.46391592  0.04410517     0.08500
C1256       C  0.65713039  0.48616579  0.11851345    -0.55000
C1257       C  0.68265542  0.47617027  0.13524152     0.09100
H1258       H  0.67725076  0.54235240  0.05202176     0.13600
H1259       H  0.72738280  0.46948810  0.10675439    -0.00700
H1260       H  0.65787174  0.46711378  0.49510848     0.13900
H1261       H  0.63832156  0.48672663  0.14291375     0.13700
In1262     In  0.57479350  0.52942302  0.03354410     1.36900
C1263       C  0.62773085  0.50902138  0.05025449     0.76500
O1264       O  0.56308084  0.51322165  0.11397491    -0.61900
O1265       O  0.53179426  0.53517797  0.07153623    -0.52800
C1266       C  0.58511517  0.58569385  0.53514818     0.69200
O1267       O  0.58671529  0.57098506  0.99472492    -0.47700
C1268       C  0.55956322  0.50984515  0.43947638     0.73900
O1269       O  0.62291486  0.53471596  0.03836766    -0.59500
O1270       O  0.57179800  0.49501372  0.47320994    -0.49600
O1271       O  0.60552825  0.49356766  0.05246061    -0.56000
C1272       C  0.53937382  0.52575463  0.11471974     0.84100
O1273       O  0.57843347  0.57170821  0.57446419    -0.57800
O1274       O  0.55103148  0.53368340  0.45592844    -0.61100
In1275     In  0.91897069  0.44983556  0.01352437     1.36900
C1276       C  0.86586660  0.46960998  0.99951749     0.76500
O1277       O  0.94161131  0.44403490  0.09154561    -0.61900
O1278       O  0.92332540  0.48403124  0.07422558    -0.52800
C1279       C  0.90685775  0.39438988  0.00895275     0.69200
O1280       O  0.90877537  0.40784241  0.05072764    -0.47700
C1281       C  0.95475201  0.45202194  0.43289983     0.73900
O1282       O  0.87108459  0.44404877  0.01121710    -0.59500
O1283       O  0.96175747  0.44231705  0.47616788    -0.49600
O1284       O  0.88776680  0.48553926  0.99703787    -0.56000
C1285       C  0.93433735  0.46828401  0.10809365     0.84100
O1286       O  0.91097591  0.40924577  0.96952253    -0.57800
O1287       O  0.93172791  0.46580832  0.43339604    -0.61100
C1288       C  0.76089738  0.57404319  0.07781711     0.85500
C1289       C  0.77922867  0.55975164  0.03652112    -0.54800
C1290       C  0.78113719  0.53075379  0.04144144     0.08400
C1291       C  0.76494366  0.51863054  0.08896681     0.19300
C1292       C  0.73222581  0.55840918  0.07560293    -0.55500
C1293       C  0.73371516  0.52920820  0.08131658     0.08500
C1294       C  0.77379252  0.56507741  0.12892088    -0.55000
C1295       C  0.77601699  0.53623791  0.13574487     0.09100
H1296       H  0.78963458  0.57151997  0.00582547     0.13600
H1297       H  0.76734532  0.49515592  0.09353880    -0.00700
H1298       H  0.71251243  0.57015967  0.07083223     0.13900
H1299       H  0.78097481  0.58042144  0.15755950     0.13700
C1300       C  0.83637047  0.47982652  0.98539848     0.85500
C1301       C  0.82463995  0.50353591  0.01964614    -0.54800
C1302       C  0.79835952  0.51310617  0.00534174     0.08400
C1303       C  0.78666182  0.49873058  0.45547068     0.19300
C1304       C  0.81265104  0.45678645  0.48514339    -0.55500
C1305       C  0.78620082  0.46644681  0.46966879     0.08500
C1306       C  0.83639013  0.49167607  0.43140158    -0.55000
C1307       C  0.81080846  0.50123196  0.41426532     0.09100
H1308       H  0.83518962  0.51055364  0.05455899     0.13600
H1309       H  0.76590992  0.50737330  0.44252101    -0.00700
H1310       H  0.81673766  0.43502564  0.49746102     0.13900
H1311       H  0.85536860  0.49150526  0.40738388     0.13700
In1312     In  0.82501420  0.52908285  0.26523253     1.36900
C1313       C  0.87787348  0.50825828  0.24964866     0.76500
O1314       O  0.80100658  0.53341384  0.34265706    -0.61900
O1315       O  0.82154305  0.49462727  0.32526905    -0.52800
C1316       C  0.83610985  0.58523565  0.26207976     0.69200
O1317       O  0.83609667  0.57119386  0.30333396    -0.47700
C1318       C  0.78949622  0.52601649  0.18403402     0.73900
O1319       O  0.87320950  0.53375059  0.26309284    -0.59500
O1320       O  0.78228700  0.53602378  0.22700559    -0.49600
O1321       O  0.85553864  0.49308386  0.24577647    -0.56000
C1322       C  0.80929879  0.50947568  0.35899871     0.84100
O1323       O  0.83089086  0.57059580  0.22274645    -0.57800
O1324       O  0.81273710  0.51263218  0.18506386    -0.61100
C1325       C  0.98327746  0.40252632  0.32835485     0.85500
C1326       C  0.96484842  0.41656816  0.28654178    -0.54800
C1327       C  0.96275955  0.44571108  0.29064912     0.08400
C1328       C  0.97911474  0.45822497  0.33773745     0.19300
C1329       C  0.51200198  0.41835370  0.32562191    -0.55500
C1330       C  0.51038231  0.44769344  0.33049777     0.08500
C1331       C  0.97044151  0.41223037  0.37915015    -0.55000
C1332       C  0.96818579  0.44115052  0.38501248     0.09100
H1333       H  0.95435830  0.40446770  0.25630453     0.13600
H1334       H  0.97665366  0.48173088  0.34170848    -0.00700
H1335       H  0.53183522  0.40673502  0.32125925     0.13900
H1336       H  0.96331588  0.39728324  0.40841207     0.13700
C1337       C  0.90724016  0.49731514  0.23525335     0.85500
C1338       C  0.90710016  0.48576168  0.18087100    -0.54800
C1339       C  0.93260270  0.47601575  0.16358279     0.08400
C1340       C  0.95678391  0.47800408  0.20478384     0.19300
C1341       C  0.91890849  0.47318310  0.26899992    -0.55500
C1342       C  0.94515562  0.46334325  0.25445463     0.08500
C1343       C  0.93117243  0.51999809  0.23537287    -0.55000
C1344       C  0.95743223  0.51019602  0.21939336     0.09100
H1345       H  0.88818019  0.48638229  0.15671361     0.13600
H1346       H  0.97746794  0.46936120  0.19147648    -0.00700
H1347       H  0.90842137  0.46621016  0.30394362     0.13900
H1348       H  0.92727865  0.54182352  0.24809601     0.13700
C1349       C  0.53379486  0.77069381  0.10090428     0.85500
C1350       C  0.56131132  0.75718565  0.07973478    -0.54800
C1351       C  0.57512506  0.73999597  0.11408578     0.08400
C1352       C  0.56098561  0.73941579  0.16641164     0.19300
C1353       C  0.51605854  0.74514816  0.12059317    -0.55500
C1354       C  0.53065923  0.72847417  0.15441653     0.08500
C1355       C  0.54280360  0.78726087  0.14798920    -0.55000
C1356       C  0.55768626  0.77121325  0.18153547     0.09100
H1357       H  0.56664067  0.75758831  0.53930648     0.13600
H1358       H  0.57291253  0.72652787  0.19495964    -0.00700
H1359       H  0.99445263  0.74022579  0.10800879     0.13900
H1360       H  0.54017231  0.81029286  0.15211202     0.13700
In1361     In  0.74741632  0.66152641  0.06107520     1.36900
C1362       C  0.76939813  0.68944129  0.48416842     0.76500
O1363       O  0.70772506  0.66205241  0.01588053    -0.61900
O1364       O  0.70450457  0.66131647  0.09766396    -0.52800
C1365       C  0.75772037  0.60589548  0.07168084     0.69200
O1366       O  0.75026943  0.61694496  0.02989422    -0.47700
C1367       C  0.76829435  0.70231893  0.11937772     0.73900
O1368       O  0.78204881  0.66855537  0.00474733    -0.59500
O1369       O  0.74210919  0.69592619  0.12003424    -0.49600
O1370       O  0.74444499  0.69405394  0.99980471    -0.56000
C1371       C  0.69191112  0.66253791  0.05489999     0.84100
O1372       O  0.76088690  0.62354687  0.10798548    -0.57800
O1373       O  0.78402156  0.68497503  0.09575956    -0.61100
In1374     In  0.60602860  0.67107357  0.54072608     1.36900
C1375       C  0.59071840  0.71514980  0.09502474     0.76500
O1376       O  0.64482548  0.66487522  0.08853256    -0.61900
O1377       O  0.64934509  0.66880255  0.50739685    -0.52800
C1378       C  0.59149972  0.61639499  0.53689696     0.69200
O1379       O  0.58911259  0.63111665  0.07738237    -0.47700
C1380       C  0.57472537  0.69407391  0.46992662     0.73900
O1381       O  0.58438389  0.68979803  0.10856900    -0.59500
O1382       O  0.60161883  0.69644915  0.46982778    -0.49600
O1383       O  0.60832028  0.71738367  0.05887841    -0.56000
C1384       C  0.66121961  0.66527114  0.05026651     0.84100
O1385       O  0.60050495  0.62987112  0.49826031    -0.57800
O1386       O  0.56406149  0.67817908  0.50405693    -0.61100
C1387       C  0.78370763  0.70803999  0.44597866     0.85500
C1388       C  0.81070243  0.72261325  0.96767260    -0.54800
C1389       C  0.82446527  0.73997468  0.43332879     0.08400
C1390       C  0.81084385  0.73979905  0.38054385     0.19300
C1391       C  0.76562614  0.73286150  0.42499068    -0.55500
C1392       C  0.78019400  0.74986039  0.39137566     0.08500
C1393       C  0.79361550  0.69142244  0.39960987    -0.55000
C1394       C  0.80839135  0.70777199  0.36602773     0.09100
H1395       H  0.81583754  0.72249634  0.00821136     0.13600
H1396       H  0.82278088  0.75292745  0.35219265    -0.00700
H1397       H  0.74387420  0.73726837  0.43700898     0.13900
H1398       H  0.79138807  0.66830242  0.39579096     0.13700
In1399     In  0.99812154  0.81774662  0.48688112     1.36900
C1400       C  0.51957068  0.78931259  0.06306051     0.76500
O1401       O  0.95850938  0.81696669  0.03254674    -0.61900
O1402       O  0.95513475  0.81904917  0.45088401    -0.52800
C1403       C  0.50974950  0.87351213  0.47678267     0.69200
O1404       O  0.50227013  0.86238656  0.51858580    -0.47700
C1405       C  0.51846190  0.77681141  0.42815565     0.73900
O1406       O  0.53216387  0.81075931  0.04384062    -0.59500
O1407       O  0.99235380  0.78324713  0.42761132    -0.49600
O1408       O  0.99476962  0.78435276  0.04665426    -0.56000
C1409       C  0.94261032  0.81716139  0.99359596     0.84100
O1410       O  0.01236678  0.85585970  0.44037629    -0.57800
O1411       O  0.53435901  0.79414410  0.45190799    -0.61100
In1412     In  0.85663543  0.80869230  0.00675853     1.36900
C1413       C  0.84028718  0.76488804  0.45223291     0.76500
O1414       O  0.89566170  0.81426269  0.95950731    -0.61900
O1415       O  0.89982703  0.81118779  0.04084903    -0.57600
C1416       C  0.84401661  0.86361019  0.01051454     0.69200
O1417       O  0.84089815  0.84897326  0.96999658    -0.47700
C1418       C  0.82512887  0.78553602  0.07765644     0.73900
O1419       O  0.83419318  0.79028107  0.43889563    -0.59500
O1420       O  0.85176539  0.78163522  0.07564162    -0.49600
O1421       O  0.85802989  0.76256564  0.98811932    -0.56000
C1422       C  0.91188951  0.81435648  0.99804005     0.84100
O1423       O  0.85265543  0.84991013  0.04908023    -0.57800
O1424       O  0.81497108  0.80310429  0.04585396    -0.61100
C1425       C  0.78298990  0.77072872  0.19589545     0.85500
C1426       C  0.79256647  0.78750165  0.14939144    -0.54800
C1427       C  0.80748201  0.77146789  0.11576562     0.08400
C1428       C  0.81021001  0.73953011  0.13020600     0.19300
C1429       C  0.76506802  0.74555000  0.17518781    -0.55500
C1430       C  0.77971632  0.72886913  0.14144276     0.08500
C1431       C  0.81018637  0.75668876  0.21732619    -0.55000
C1432       C  0.82400201  0.73961636  0.18276307     0.09100
H1433       H  0.79027171  0.81059354  0.14578379     0.13600
H1434       H  0.82215297  0.72661758  0.10170113    -0.00700
H1435       H  0.74340138  0.74068819  0.18745293     0.13900
H1436       H  0.81534319  0.75677064  0.25787112     0.13700
In1437     In  0.99739003  0.66179159  0.23536997     1.36900
C1438       C  0.51902204  0.70213889  0.17691113     0.76500
O1439       O  0.99393710  0.69464018  0.29627182    -0.61900
O1440       O  0.53120393  0.66854802  0.29327368    -0.52800
C1441       C  0.94189589  0.66320900  0.23993718     0.69200
O1442       O  0.95469528  0.66137930  0.19743837    -0.47700
C1443       C  0.50738389  0.60595172  0.22602849     0.73900
O1444       O  0.99284661  0.69573115  0.17547634    -0.59500
O1445       O  0.49875859  0.61718167  0.26692980    -0.49600
O1446       O  0.53445549  0.68508124  0.20176277    -0.56000
C1447       C  0.51859264  0.68969814  0.31306428     0.84100
O1448       O  0.95749976  0.66321500  0.27924250    -0.57800
O1449       O  0.01189352  0.62351526  0.19010460    -0.61100
In1450     In  0.85604510  0.67094782  0.25490739     1.36900
C1451       C  0.83967693  0.71473137  0.20118995     0.76500
O1452       O  0.81456282  0.67778501  0.29355682    -0.61900
O1453       O  0.85234621  0.69682020  0.32561379    -0.52800
C1454       C  0.84240412  0.61597575  0.25959649     0.69200
O1455       O  0.83994133  0.63037365  0.21878202    -0.47700
C1456       C  0.91120386  0.66587871  0.24435069     0.73900
O1457       O  0.83283526  0.68934873  0.18846530    -0.59500
O1458       O  0.89944590  0.66942608  0.28728907    -0.49600
O1459       O  0.85813368  0.71706264  0.23592878    -0.56000
C1460       C  0.82550509  0.69406602  0.32692030     0.84100
O1461       O  0.85114849  0.62987882  0.29801193    -0.57800
O1462       O  0.89469553  0.66520933  0.20619101    -0.61100
C1463       C  0.53277732  0.70828034  0.35146276     0.85500
C1464       C  0.54229941  0.69165698  0.39804465    -0.54800
C1465       C  0.55723255  0.70789981  0.43162834     0.08400
C1466       C  0.56014211  0.73981803  0.41701474     0.19300
C1467       C  0.51494578  0.73340788  0.37210070    -0.55500
C1468       C  0.52968275  0.75027529  0.40583295     0.08500
C1469       C  0.56001913  0.72245176  0.33002936    -0.55000
C1470       C  0.57390717  0.73971356  0.36443574     0.09100
H1471       H  0.53991806  0.66855156  0.40180499     0.13600
H1472       H  0.57219757  0.75282279  0.44545554    -0.00700
H1473       H  0.99328406  0.73806473  0.35984623     0.13900
H1474       H  0.56519485  0.72226153  0.28950013     0.13700
In1475     In  0.74741196  0.81713871  0.31114160     1.36900
C1476       C  0.76854434  0.77623318  0.36914078     0.76500
O1477       O  0.74405831  0.78392224  0.25079468    -0.61900
O1478       O  0.78122873  0.81062357  0.25354073    -0.52800
C1479       C  0.69184191  0.81641861  0.30529360     0.69200
O1480       O  0.70454779  0.81802220  0.34792781    -0.47700
C1481       C  0.75875180  0.87309212  0.32144094     0.73900
O1482       O  0.74234235  0.78230183  0.36989212    -0.59500
O1483       O  0.75088338  0.86198472  0.27978893    -0.49600
O1484       O  0.78411940  0.79384226  0.34546051    -0.56000
C1485       C  0.76873237  0.78916217  0.23409408     0.84100
O1486       O  0.70758583  0.81630969  0.26617798    -0.57800
O1487       O  0.76172213  0.85536042  0.35758755    -0.61100
In1488     In  0.60586888  0.80859372  0.29162608     1.36900
C1489       C  0.58970292  0.76461759  0.34564012     0.76500
O1490       O  0.56440089  0.80263053  0.25202972    -0.61900
O1491       O  0.60159850  0.78182159  0.22233175    -0.52800
C1492       C  0.59294116  0.86350190  0.28773302     0.69200
O1493       O  0.58878740  0.84862953  0.32761645    -0.47700
C1494       C  0.66109242  0.81395630  0.30091457     0.73900
O1495       O  0.58371572  0.78997683  0.35938852    -0.59500
O1496       O  0.64908225  0.81054076  0.25810121    -0.49600
O1497       O  0.60728095  0.76236970  0.30954774    -0.56000
C1498       C  0.57493052  0.78533679  0.22010444     0.84100
O1499       O  0.60275632  0.85003706  0.24978849    -0.57800
O1500       O  0.64478763  0.81449101  0.33931863    -0.61100
C1501       C  0.68784347  0.27238766  0.19324516     0.85500
C1502       C  0.69711013  0.29003215  0.14783524    -0.54800
C1503       C  0.71105458  0.27456930  0.11200907     0.08400
C1504       C  0.71386424  0.24228054  0.12429482     0.19300
C1505       C  0.66973513  0.24777240  0.17152793    -0.55500
C1506       C  0.68342458  0.23190773  0.13583221     0.08500
C1507       C  0.71520072  0.25765510  0.21304923    -0.55000
C1508       C  0.72831611  0.24078496  0.17667492     0.09100
H1509       H  0.69346406  0.31295272  0.14475306     0.13600
H1510       H  0.72501686  0.22979779  0.09415617    -0.00700
H1511       H  0.64810065  0.24299919  0.18397510     0.13900
H1512       H  0.72032994  0.25639325  0.25346363     0.13700
In1513     In  0.50252918  0.16553916  0.05864075     1.36900
C1514       C  0.96848558  0.18672002  0.49001441     0.76500
O1515       O  0.98529498  0.18976327  0.12576517    -0.61900
O1516       O  0.50797026  0.21287589  0.06802989    -0.52800
C1517       C  0.49150315  0.10941473  0.07098422     0.69200
O1518       O  0.99939376  0.12016703  0.02903185    -0.47700
C1519       C  0.55834164  0.16648152  0.05689612     0.73900
O1520       O  0.95946902  0.18053261  0.03411940    -0.59500
O1521       O  0.54462379  0.16201853  0.09771160    -0.49600
O1522       O  0.49289110  0.17715790  0.97878302    -0.56000
C1523       C  0.99222623  0.21392849  0.10697375     0.84100
O1524       O  0.48776200  0.12765604  0.10622837    -0.57800
O1525       O  0.54349084  0.16998745  0.01720233    -0.61100
In1526     In  0.64488396  0.16982831  0.55150507     1.36900
C1527       C  0.66990330  0.20729610  0.11119664     0.76500
O1528       O  0.67614345  0.17020011  0.48999350    -0.61900
O1529       O  0.64603553  0.20456774  0.49381653    -0.52800
C1530       C  0.65527928  0.11498663  0.54749353     0.69200
O1531       O  0.65799979  0.12888816  0.08889375    -0.47700
C1532       C  0.58924797  0.16779434  0.05539554     0.73900
O1533       O  0.68392146  0.18842671  0.08792143    -0.59500
O1534       O  0.60252469  0.17492660  0.51532052    -0.49600
O1535       O  0.64319469  0.20430324  0.10971560    -0.56000
C1536       C  0.66738562  0.19357683  0.47205541     0.84100
O1537       O  0.64700443  0.12908986  0.50937881    -0.57800
O1538       O  0.60448795  0.16203893  0.09386273    -0.61100
C1539       C  0.95272614  0.20560422  0.45400404     0.85500
C1540       C  0.94373712  0.18954395  0.40661138    -0.54800
C1541       C  0.93000039  0.20622314  0.37233064     0.08400
C1542       C  0.92717852  0.23784112  0.38749067     0.19300
C1543       C  0.97117569  0.23099294  0.43492684    -0.55500
C1544       C  0.95754812  0.24811355  0.40041105     0.08500
C1545       C  0.92525751  0.21969116  0.97435992    -0.55000
C1546       C  0.91230097  0.23727730  0.43923128     0.09100
H1547       H  0.94686982  0.16663146  0.40149888     0.13600
H1548       H  0.91599876  0.25102839  0.35837640    -0.00700
H1549       H  0.49283865  0.23514790  0.44802418     0.13900
H1550       H  0.91950461  0.21953942  0.01463249     0.13700
In1551     In  0.74390083  0.31337276  0.48554595     1.36900
C1552       C  0.72289248  0.28846553  0.06692090     0.76500
O1553       O  0.70595782  0.29136385  0.45104195    -0.61900
O1554       O  0.74706751  0.28007497  0.42340997    -0.52800
C1555       C  0.73541234  0.37019222  0.47680224     0.69200
O1556       O  0.74497590  0.35861690  0.51669688    -0.47700
C1557       C  0.79951751  0.31167602  0.99179378     0.73900
O1558       O  0.71569000  0.31341258  0.05341126    -0.59500
O1559       O  0.78696941  0.31651886  0.44993416    -0.49600
O1560       O  0.74130925  0.27656688  0.03932760    -0.56000
C1561       C  0.72073394  0.27429812  0.42469555     0.84100
O1562       O  0.72918867  0.35252946  0.44162105    -0.57800
O1563       O  0.78362886  0.30754715  0.02987558    -0.61100
In1564     In  0.88557755  0.30962630  0.00486955     1.36900
C1565       C  0.89731328  0.26278806  0.45659858     0.76500
O1566       O  0.92950445  0.29646004  0.02739836    -0.61900
O1567       O  0.89546902  0.29616525  0.08261500    -0.52800
C1568       C  0.89955718  0.36409214  0.00659461     0.69200
O1569       O  0.90116786  0.34941893  0.96591350    -0.47700
C1570       C  0.83025963  0.31102216  0.99634987     0.73900
O1571       O  0.90247631  0.28724341  0.43715625    -0.59500
O1572       O  0.84243937  0.30597325  0.03848012    -0.49600
O1573       O  0.88227701  0.26256529  0.99659241    -0.56000
C1574       C  0.92092295  0.28942476  0.07145988     0.84100
O1575       O  0.89090433  0.35085469  0.04561276    -0.57800
O1576       O  0.84644204  0.31556831  0.45862522    -0.61100
C1577       C  0.93818588  0.27232391  0.10764339     0.85500
C1578       C  0.96565005  0.25785679  0.08771790    -0.54800
C1579       C  0.97879827  0.24081633  0.12377238     0.08400
C1580       C  0.96430630  0.24202250  0.17615728     0.19300
C1581       C  0.92019340  0.24751431  0.12873926    -0.55500
C1582       C  0.93392434  0.23155406  0.16422114     0.08500
C1583       C  0.94726950  0.28978326  0.15349844    -0.55000
C1584       C  0.96126193  0.27423436  0.18911418     0.09100
H1585       H  0.97077588  0.25680610  0.04728186     0.13600
H1586       H  0.97548015  0.22946931  0.20615184    -0.00700
H1587       H  0.89857895  0.24272488  0.11611417     0.13900
H1588       H  0.94347572  0.31266203  0.15703947     0.13700
In1589     In  0.75310952  0.16572349  0.24093963     1.36900
C1590       C  0.71983501  0.18731499  0.31049411     0.76500
O1591       O  0.79417359  0.16911354  0.28219594    -0.61900
O1592       O  0.79501928  0.16319442  0.20105469    -0.52800
C1593       C  0.74200372  0.10952036  0.22871956     0.69200
O1594       O  0.74897084  0.12053919  0.27102010    -0.47700
C1595       C  0.74186155  0.21388417  0.19284186     0.73900
O1596       O  0.71034330  0.18052133  0.26692650    -0.59500
O1597       O  0.75891587  0.21293485  0.23001600    -0.49600
O1598       O  0.74457393  0.17833809  0.32089541    -0.56000
C1599       C  0.80887028  0.16656588  0.24209995     0.84100
O1600       O  0.73935456  0.12752992  0.19283343    -0.57800
O1601       O  0.73396744  0.18968193  0.17537649    -0.61100
In1602     In  0.89532256  0.16941218  0.24762142     1.36900
C1603       C  0.92038871  0.20689829  0.18848647     0.76500
O1604       O  0.85492412  0.16303038  0.20448856    -0.61900
O1605       O  0.85308869  0.17344508  0.28426350    -0.52800
C1606       C  0.90543759  0.11446314  0.25157830     0.69200
O1607       O  0.90804651  0.12824217  0.21009311    -0.47700
C1608       C  0.91719434  0.19362009  0.32743356     0.73900
O1609       O  0.93438614  0.18775126  0.21107008    -0.59500
O1610       O  0.89553156  0.20405099  0.30581851    -0.49600
O1611       O  0.89366320  0.20417661  0.19035022    -0.56000
C1612       C  0.83975932  0.16767686  0.24353730     0.84100
O1613       O  0.89743971  0.12873554  0.28969060    -0.57800
O1614       O  0.92681714  0.17075190  0.30876713    -0.61100
C1615       C  0.70400266  0.20604041  0.34671467     0.85500
C1616       C  0.67646115  0.21995079  0.32614406    -0.54800
C1617       C  0.66324753  0.23733047  0.36133141     0.08400
C1618       C  0.67794248  0.23791972  0.41317792     0.19300
C1619       C  0.72216645  0.23154882  0.36621684    -0.55500
C1620       C  0.70824749  0.24847896  0.40070385     0.08500
C1621       C  0.69498817  0.18981012  0.39387627    -0.55000
C1622       C  0.68087784  0.20630883  0.42800608     0.09100
H1623       H  0.67080672  0.21984262  0.28581378     0.13600
H1624       H  0.66654280  0.25097047  0.44224076    -0.00700
H1625       H  0.74382355  0.23594357  0.35337746     0.13900
H1626       H  0.69817937  0.16689308  0.39872168     0.13700
In1627     In  0.99383905  0.31304129  0.31626661     1.36900
C1628       C  0.97290634  0.28805063  0.23457483     0.76500
O1629       O  0.53369235  0.30783236  0.27249852    -0.61900
O1630       O  0.53682053  0.31591160  0.35285092    -0.52800
C1631       C  0.98594095  0.37012352  0.32391865     0.69200
O1632       O  0.99512262  0.35810250  0.28412742    -0.47700
C1633       C  0.97043671  0.27379768  0.37665749     0.73900
O1634       O  0.96414458  0.31207970  0.25027385    -0.59500
O1635       O  0.49692837  0.27878164  0.37680650    -0.49600
O1636       O  0.99278634  0.27713300  0.26012969    -0.56000
C1637       C  0.54948361  0.31151002  0.31092182     0.84100
O1638       O  0.47989362  0.35279422  0.35966059    -0.57800
O1639       O  0.95580580  0.29159186  0.35169137    -0.61100
In1640     In  0.63551534  0.30945539  0.29670303     1.36900
C1641       C  0.64794888  0.26268975  0.34430158     0.76500
O1642       O  0.59660308  0.31562854  0.34379387    -0.61900
O1643       O  0.59224443  0.30534841  0.26424081    -0.52800
C1644       C  0.64900479  0.36396993  0.29356248     0.69200
O1645       O  0.65136285  0.34954161  0.33437173    -0.47700
C1646       C  0.67064804  0.28944004  0.22963387     0.73900
O1647       O  0.65291841  0.28716401  0.36395481    -0.59500
O1648       O  0.64502929  0.29581505  0.21895800    -0.49600
O1649       O  0.63270998  0.26234710  0.30451825    -0.56000
C1650       C  0.58024455  0.31078245  0.30636946     0.84100
O1651       O  0.63985497  0.35046020  0.25513053    -0.57800
O1652       O  0.67948459  0.29681386  0.27341437    -0.61100
In1653     In  0.67336348  0.02984561  0.03438583     1.36900
C1654       C  0.62012525  0.00984168  0.04924479     0.76500
O1655       O  0.67899869  0.99571411  0.47345102    -0.61900
O1656       O  0.69386531  0.03706244  0.45479395    -0.52800
C1657       C  0.66143451  0.08472464  0.54299187     0.69200
O1658       O  0.66323087  0.07231426  0.00015735    -0.47700
C1659       C  0.71012527  0.02910404  0.11392876     0.73900
O1660       O  0.62545890  0.03526379  0.03645968    -0.59500
O1661       O  0.71566930  0.04066836  0.07140517    -0.49600
O1662       O  0.64196051  0.99412690  0.05236269    -0.56000
C1663       C  0.68830385  0.01217034  0.43884770     0.84100
O1664       O  0.66502608  0.06897564  0.58139760    -0.57800
O1665       O  0.68854539  0.01284757  0.11262193    -0.61100
C1666       C  0.51341505  0.90546114  0.47056835     0.85500
C1667       C  0.53255270  0.91974802  0.01098894    -0.54800
C1668       C  0.53479564  0.94876003  0.00584717     0.08400
C1669       C  0.51816764  0.96089238  0.45910184     0.19300
C1670       C  0.98502225  0.92124786  0.47412137    -0.55500
C1671       C  0.98688238  0.95045683  0.46834923     0.08500
C1672       C  0.52572720  0.91441156  0.41885467    -0.55000
C1673       C  0.52844456  0.94325075  0.41190575     0.09100
H1674       H  0.54306800  0.90801609  0.04147089     0.13600
H1675       H  0.52090062  0.98435256  0.45444632    -0.00700
H1676       H  0.96530696  0.90964406  0.48007229     0.13900
H1677       H  0.53240780  0.89902003  0.39009392     0.13700
C1678       C  0.59051628  0.99953023  0.06319131     0.85500
C1679       C  0.59012376  0.98709204  0.11695105    -0.54800
C1680       C  0.56426623  0.97745755  0.13313985     0.08400
C1681       C  0.54038899  0.98060331  0.09181582     0.19300
C1682       C  0.57849338  0.97623728  0.02800206    -0.55500
C1683       C  0.55206217  0.96659835  0.04182028     0.08500
C1684       C  0.56718179  0.02268545  0.06396447    -0.55000
C1685       C  0.54052902  0.01302579  0.07882783     0.09100
H1686       H  0.60891558  0.98692743  0.14144559     0.13600
H1687       H  0.51947687  0.97187422  0.10415590    -0.00700
H1688       H  0.58908078  0.96940424  0.49310992     0.13900
H1689       H  0.57175866  0.04456978  0.05275005     0.13700
In1690     In  0.57801506  0.95054172  0.28236503     1.36900
C1691       C  0.63119484  0.97143976  0.29800217     0.76500
O1692       O  0.55987149  0.94272861  0.20157095    -0.61900
O1693       O  0.56820543  0.98528152  0.22399984    -0.52800
C1694       C  0.58744267  0.89430527  0.28563435     0.69200
O1695       O  0.59158590  0.90908307  0.24588416    -0.47700
C1696       C  0.54238039  0.95340776  0.36372500     0.73900
O1697       O  0.62596328  0.94551850  0.28848195    -0.59500
O1698       O  0.53508183  0.94362717  0.32049295    -0.49600
O1699       O  0.60927813  0.98704845  0.29819474    -0.56000
C1700       C  0.56192129  0.96846817  0.18778407     0.84100
O1701       O  0.57884860  0.90824922  0.32376324    -0.57800
O1702       O  0.56601620  0.96643789  0.36307253    -0.61100
C1703       C  0.73846390  0.07735049  0.22177021     0.85500
C1704       C  0.72644893  0.06845748  0.16961025    -0.54800
C1705       C  0.72361467  0.03957099  0.16244227     0.08400
C1706       C  0.73341316  0.02186349  0.20974526     0.19300
C1707       C  0.71897041  0.06299113  0.26166634    -0.55500
C1708       C  0.71654155  0.03396668  0.25638349     0.08500
C1709       C  0.76677138  0.06125198  0.22570325    -0.55000
C1710       C  0.76475262  0.03203520  0.21927375     0.09100
H1711       H  0.72005865  0.08391133  0.14074190     0.13600
H1712       H  0.73054361  0.99843598  0.20478693    -0.00700
H1713       H  0.70835528  0.07474846  0.29203776     0.13900
H1714       H  0.78665690  0.07268601  0.23202331     0.13700
C1715       C  0.66065623  0.98242858  0.31219775     0.85500
C1716       C  0.66067858  0.99442043  0.36630795    -0.54800
C1717       C  0.68633816  0.00419102  0.38341310     0.08400
C1718       C  0.71048132  0.00174351  0.34225731     0.19300
C1719       C  0.67261844  0.00620216  0.27783050    -0.55500
C1720       C  0.69897052  0.01605183  0.29223504     0.08500
C1721       C  0.68425605  0.95963931  0.31261396    -0.55000
C1722       C  0.71069635  0.96942577  0.32841612     0.09100
H1723       H  0.64177818  0.99399060  0.39048685     0.13600
H1724       H  0.73131243  0.01043305  0.35526052    -0.00700
H1725       H  0.66213438  0.01308909  0.24286460     0.13900
H1726       H  0.67998334  0.93788298  0.30038957     0.13700
In1727     In  0.92357379  0.02948092  0.26614438     1.36900
C1728       C  0.87019718  0.00935478  0.25148627     0.76500
O1729       O  0.93952440  0.01233299  0.18852547    -0.61900
O1730       O  0.96558847  0.04146162  0.22920922    -0.52800
C1731       C  0.91152272  0.08420328  0.25638820     0.69200
O1732       O  0.91426092  0.07228893  0.29945603    -0.47700
C1733       C  0.93889611  0.01216676  0.36161067     0.73900
O1734       O  0.87548720  0.03442980  0.26644754    -0.59500
O1735       O  0.93120839  0.99523841  0.32636294    -0.49600
O1736       O  0.89213990  0.99394507  0.24652289    -0.56000
C1737       C  0.96052834  0.02932116  0.18695087     0.84100
O1738       O  0.91417878  0.06801200  0.21823133    -0.57800
O1739       O  0.94267302  0.03747971  0.34639734    -0.61100
C1740       C  0.76266355  0.90507817  0.32781666     0.85500
C1741       C  0.73442187  0.92116426  0.32475813    -0.54800
C1742       C  0.73654679  0.95035656  0.33093740     0.08400
C1743       C  0.76796336  0.96046906  0.33996618     0.19300
C1744       C  0.78179904  0.91934104  0.28735125    -0.55500
C1745       C  0.78436999  0.94833786  0.29284119     0.08500
C1746       C  0.77523432  0.91379335  0.37953581    -0.55000
C1747       C  0.77820490  0.94258891  0.38687107     0.09100
H1748       H  0.71453446  0.90970375  0.31893643     0.13600
H1749       H  0.77086261  0.98389882  0.34495091    -0.00700
H1750       H  0.79213244  0.90758466  0.25667100     0.13900
H1751       H  0.78185929  0.89827240  0.40808629     0.13700
C1752       C  0.84053282  0.99918800  0.23698570     0.85500
C1753       C  0.81722349  0.02237386  0.23659974    -0.54800
C1754       C  0.79059850  0.01286987  0.22112922     0.08400
C1755       C  0.79043338  0.98052620  0.20726358     0.19300
C1756       C  0.82834879  0.97563131  0.27138009    -0.55500
C1757       C  0.80190379  0.96614244  0.25710319     0.08500
C1758       C  0.84023744  0.98719367  0.18283924    -0.55000
C1759       C  0.81443161  0.97767341  0.16602267     0.09100
H1760       H  0.82178078  0.04417372  0.24850794     0.13600
H1761       H  0.76952374  0.97197020  0.19444265    -0.00700
H1762       H  0.83879481  0.96860416  0.30628380     0.13900
H1763       H  0.85910998  0.98719990  0.15857977     0.13700
In1764     In  0.82806624  0.95034842  0.01646082     1.36900
C1765       C  0.88123816  0.97105882  0.00109632     0.76500
O1766       O  0.81511367  0.96669091  0.43638936    -0.61900
O1767       O  0.78541656  0.94199271  0.47817742    -0.52800
C1768       C  0.83845969  0.89437414  0.01275306     0.69200
O1769       O  0.84029476  0.90871056  0.05361498    -0.47700
C1770       C  0.81232854  0.96906437  0.11096286     0.73900
O1771       O  0.87613223  0.94542089  0.01296917    -0.59500
O1772       O  0.82119668  0.98526773  0.07568383    -0.49600
O1773       O  0.85919962  0.98645684  0.99844359    -0.56000
C1774       C  0.79212988  0.95254593  0.43530675     0.84100
O1775       O  0.83195820  0.90869347  0.97376637    -0.57800
O1776       O  0.80742611  0.94384852  0.09607888    -0.61100
C1777       C  0.48814632  0.07729008  0.07834084     0.85500
C1778       C  0.51649506  0.06129250  0.07407319    -0.54800
C1779       C  0.51462774  0.03209705  0.08081306     0.08400
C1780       C  0.98338074  0.02184906  0.09090528     0.19300
C1781       C  0.96850428  0.06273082  0.03888646    -0.55500
C1782       C  0.96621228  0.03373391  0.04441610     0.08500
C1783       C  0.97648745  0.06856122  0.13079589    -0.55000
C1784       C  0.97382470  0.03969292  0.13826323     0.09100
H1785       H  0.53627336  0.07278693  0.06721978     0.13600
H1786       H  0.98060127  0.99843808  0.09609838    -0.00700
H1787       H  0.95777122  0.07432801  0.00847303     0.13900
H1788       H  0.97019792  0.08410021  0.15963089     0.13700
C1789       C  0.91076992  0.98200156  0.48733872     0.85500
C1790       C  0.93447339  0.95927602  0.48693788    -0.54800
C1791       C  0.96092008  0.96928606  0.47152192     0.08400
C1792       C  0.96061291  0.00162054  0.45827961     0.19300
C1793       C  0.92249255  0.00571345  0.02220319    -0.55500
C1794       C  0.94887248  0.01566368  0.00836285     0.08500
C1795       C  0.91097333  0.99411879  0.43334498    -0.55000
C1796       C  0.93665615  0.00405651  0.41683501     0.09100
H1797       H  0.93024817  0.93746986  0.49851141     0.13600
H1798       H  0.98141598  0.01050388  0.44567516    -0.00700
H1799       H  0.91182119  0.01250135  0.05704522     0.13900
H1800       H  0.89220880  0.99365175  0.40878821     0.13700
In1801     In  0.66875881  0.44954434  0.78469483     1.36900
C1802       C  0.61590354  0.46995801  0.79826786     0.76500
O1803       O  0.68199299  0.46569354  0.86454271    -0.61900
O1804       O  0.71117487  0.44072370  0.82252847    -0.52800
C1805       C  0.65616442  0.39426893  0.79044553     0.69200
O1806       O  0.65861167  0.40723896  0.74829955    -0.47700
C1807       C  0.68458070  0.46784844  0.69035122     0.73900
O1808       O  0.62087759  0.44439362  0.78626774    -0.59500
O1809       O  0.67559377  0.48416862  0.72532223    -0.49600
O1810       O  0.63792757  0.48568110  0.80082688    -0.56000
C1811       C  0.70453489  0.45113980  0.86549186     0.84100
O1812       O  0.65978551  0.40956686  0.82956484    -0.57800
O1813       O  0.68953613  0.44275464  0.70551808    -0.61100
C1814       C  0.51054063  0.57403043  0.72037234     0.85500
C1815       C  0.98192906  0.55826347  0.72272871    -0.54800
C1816       C  0.98355840  0.52903969  0.71740076     0.08400
C1817       C  0.51481575  0.51857907  0.70977293     0.19300
C1818       C  0.52895123  0.55997281  0.76183557    -0.55500
C1819       C  0.53098404  0.53095199  0.75716783     0.08500
C1820       C  0.52344077  0.56488022  0.66938305    -0.55000
C1821       C  0.52576970  0.53604015  0.66283169     0.09100
H1822       H  0.96206534  0.56994791  0.72739716     0.13600
H1823       H  0.51732190  0.49509679  0.70542858    -0.00700
H1824       H  0.53935764  0.57191732  0.79237921     0.13900
H1825       H  0.53054323  0.58011598  0.64057083     0.13700
C1826       C  0.58653994  0.48029122  0.81276445     0.85500
C1827       C  0.56289969  0.45718224  0.81326468    -0.54800
C1828       C  0.53651317  0.46674745  0.82903246     0.08400
C1829       C  0.53688382  0.49905851  0.84316400     0.19300
C1830       C  0.57464367  0.50394312  0.77865633    -0.55500
C1831       C  0.54839250  0.51346461  0.79321894     0.08500
C1832       C  0.58671356  0.49220179  0.86683638    -0.55000
C1833       C  0.56113164  0.50167628  0.88416697     0.09100
H1834       H  0.56697318  0.43539796  0.80092010     0.13600
H1835       H  0.51614428  0.50762961  0.85631899    -0.00700
H1836       H  0.58504516  0.51093681  0.74363300     0.13900
H1837       H  0.60575429  0.49208183  0.89073417     0.13700
C1838       C  0.73268893  0.40248612  0.97152830     0.85500
C1839       C  0.76142573  0.41826100  0.97427014    -0.54800
C1840       C  0.75992495  0.44753955  0.96862999     0.08400
C1841       C  0.72867248  0.45807960  0.96078340     0.19300
C1842       C  0.71416290  0.41688372  0.51276991    -0.55500
C1843       C  0.71212438  0.44596996  0.00795765     0.08500
C1844       C  0.72003823  0.41175144  0.92032775    -0.55000
C1845       C  0.71785793  0.44062114  0.91374306     0.09100
H1846       H  0.78118744  0.40661557  0.97917444     0.13600
H1847       H  0.72627431  0.48155495  0.95624458    -0.00700
H1848       H  0.70365751  0.40506117  0.54327455     0.13900
H1849       H  0.71297400  0.39655960  0.89135324     0.13700
C1850       C  0.65711323  0.49798423  0.56433207     0.85500
C1851       C  0.68112843  0.52056912  0.56435259    -0.54800
C1852       C  0.70743505  0.51054814  0.57976208     0.08400
C1853       C  0.70669027  0.47830321  0.59385570     0.19300
C1854       C  0.66856630  0.47396475  0.52997362    -0.55500
C1855       C  0.69481141  0.46392787  0.54409776     0.08500
C1856       C  0.65713508  0.48617177  0.61851046    -0.55000
C1857       C  0.68266052  0.47617631  0.63523643     0.09100
H1858       H  0.67725232  0.54236225  0.55203014     0.13600
H1859       H  0.72738820  0.46949766  0.60674742    -0.00700
H1860       H  0.65786661  0.46710087  0.99511373     0.13900
H1861       H  0.63832647  0.48673001  0.64291094     0.13700
In1862     In  0.57479329  0.52942658  0.53354310     1.36900
C1863       C  0.62773285  0.50902914  0.55025777     0.76500
O1864       O  0.56308882  0.51323121  0.61398036    -0.61900
O1865       O  0.53179056  0.53516592  0.57153227    -0.52800
C1866       C  0.58511463  0.58568991  0.03515034     0.69200
O1867       O  0.58674455  0.57098371  0.49473258    -0.47700
C1868       C  0.55957011  0.50984670  0.93947024     0.73900
O1869       O  0.62291469  0.53472347  0.53837274    -0.59500
O1870       O  0.57179616  0.49501007  0.97320704    -0.49600
O1871       O  0.60553108  0.49357397  0.55246447    -0.56000
C1872       C  0.53937416  0.52575021  0.61471911     0.84100
O1873       O  0.57846634  0.57169833  0.07447801    -0.57800
O1874       O  0.55104285  0.53368651  0.95592227    -0.61100
In1875     In  0.91897622  0.44982515  0.51353400     1.36900
C1876       C  0.86587206  0.46960496  0.49954808     0.76500
O1877       O  0.94160892  0.44401228  0.59156058    -0.61900
O1878       O  0.92334136  0.48401728  0.57424170    -0.52800
C1879       C  0.90687196  0.39437870  0.50895170     0.69200
O1880       O  0.90878360  0.40782977  0.55072860    -0.47700
C1881       C  0.95476120  0.45202499  0.93291433     0.73900
O1882       O  0.87108918  0.44404036  0.51122698    -0.59500
O1883       O  0.96175284  0.44231071  0.97618201    -0.49600
O1884       O  0.88777290  0.48553380  0.49708204    -0.56000
C1885       C  0.93434171  0.46826305  0.60811164     0.84100
O1886       O  0.91099340  0.40923585  0.46952475    -0.57800
O1887       O  0.93174394  0.46582300  0.93339996    -0.61100
C1888       C  0.76090246  0.57405212  0.57781677     0.85500
C1889       C  0.77923588  0.55975963  0.53652340    -0.54800
C1890       C  0.78114338  0.53076138  0.54144500     0.08400
C1891       C  0.76494653  0.51863964  0.58896702     0.19300
C1892       C  0.73223043  0.55841896  0.57559839    -0.55500
C1893       C  0.73371886  0.52921810  0.58131342     0.08500
C1894       C  0.77379496  0.56508638  0.62892263    -0.55000
C1895       C  0.77601787  0.53624653  0.63574520     0.09100
H1896       H  0.78964414  0.57152736  0.50583011     0.13600
H1897       H  0.76734776  0.49516489  0.59354065    -0.00700
H1898       H  0.71251847  0.57016931  0.57082531     0.13900
H1899       H  0.78097659  0.58042963  0.65756181     0.13700
C1900       C  0.83637757  0.47982567  0.48542510     0.85500
C1901       C  0.82464579  0.50353675  0.51966827    -0.54800
C1902       C  0.79836828  0.51311085  0.50535252     0.08400
C1903       C  0.78664936  0.49872602  0.95546354     0.19300
C1904       C  0.81264641  0.45678451  0.98512525    -0.55500
C1905       C  0.78619344  0.46644248  0.96966102     0.08500
C1906       C  0.83637590  0.49167668  0.93137481    -0.55000
C1907       C  0.81079133  0.50123088  0.91425041     0.09100
H1908       H  0.83519217  0.51055331  0.55458470     0.13600
H1909       H  0.76589526  0.50736731  0.94252145    -0.00700
H1910       H  0.81673652  0.43502446  0.99744077     0.13900
H1911       H  0.85535102  0.49150811  0.90734929     0.13700
In1912     In  0.82501040  0.52907750  0.76522897     1.36900
C1913       C  0.87786992  0.50824426  0.74966082     0.76500
O1914       O  0.80103009  0.53343736  0.84266879    -0.61900
O1915       O  0.82148225  0.49461070  0.82524050    -0.52800
C1916       C  0.83610695  0.58522904  0.76207010     0.69200
O1917       O  0.83609633  0.57118725  0.80332450    -0.47700
C1918       C  0.78949549  0.52602195  0.68403104     0.73900
O1919       O  0.87320646  0.53373887  0.76308920    -0.59500
O1920       O  0.78228464  0.53602479  0.72700489    -0.49600
O1921       O  0.85553449  0.49306983  0.74580369    -0.56000
C1922       C  0.80927536  0.50947816  0.85898789     0.84100
O1923       O  0.83088632  0.57058934  0.72273675    -0.57800
O1924       O  0.81273623  0.51263753  0.68505662    -0.61100
C1925       C  0.98328620  0.40252936  0.82837394     0.85500
C1926       C  0.96485179  0.41656917  0.78656950    -0.54800
C1927       C  0.96276390  0.44571104  0.79067499     0.08400
C1928       C  0.97912471  0.45822713  0.83775463     0.19300
C1929       C  0.51201057  0.41835562  0.82562790    -0.55500
C1930       C  0.51039177  0.44769505  0.83050495     0.08500
C1931       C  0.97045760  0.41223348  0.87917459    -0.55000
C1932       C  0.96820114  0.44115375  0.88503426     0.09100
H1933       H  0.95435776  0.40446806  0.75633748     0.13600
H1934       H  0.97666303  0.48173306  0.84172385    -0.00700
H1935       H  0.53184342  0.40673628  0.82125696     0.13900
H1936       H  0.96333345  0.39728653  0.90843778     0.13700
C1937       C  0.90723651  0.49729901  0.73526509     0.85500
C1938       C  0.90709659  0.48573450  0.68088901    -0.54800
C1939       C  0.93260110  0.47599073  0.66360290     0.08400
C1940       C  0.95678249  0.47799036  0.70480106     0.19300
C1941       C  0.91890946  0.47317597  0.76902524    -0.55500
C1942       C  0.94515755  0.46333825  0.75448138     0.08500
C1943       C  0.93116588  0.51998679  0.73536848    -0.55000
C1944       C  0.95742720  0.51018376  0.71939235     0.09100
H1945       H  0.88817639  0.48635003  0.65673084     0.13600
H1946       H  0.97746770  0.46934776  0.69149800    -0.00700
H1947       H  0.90842467  0.46620694  0.80397323     0.13900
H1948       H  0.92727057  0.54180453  0.74807561     0.13700
C1949       C  0.53378891  0.77069126  0.60091827     0.85500
C1950       C  0.56130471  0.75718179  0.57974901    -0.54800
C1951       C  0.57511785  0.73999236  0.61410121     0.08400
C1952       C  0.56097835  0.73941278  0.66642587     0.19300
C1953       C  0.51605162  0.74514626  0.62060561    -0.55500
C1954       C  0.53065215  0.72847099  0.65442697     0.08500
C1955       C  0.54279810  0.78725825  0.64800293    -0.55000
C1956       C  0.55768112  0.77121088  0.68154906     0.09100
H1957       H  0.56664717  0.75759298  0.03929220     0.13600
H1958       H  0.57290520  0.72652392  0.69497358    -0.00700
H1959       H  0.99444627  0.74022345  0.60801732     0.13900
H1960       H  0.54016816  0.81029023  0.65212409     0.13700
In1961     In  0.74741369  0.66153337  0.56106592     1.36900
C1962       C  0.76940459  0.68943720  0.98418340     0.76500
O1963       O  0.70771988  0.66203285  0.51587483    -0.61900
O1964       O  0.70450489  0.66134684  0.59766065    -0.52800
C1965       C  0.75772397  0.60590407  0.57167967     0.69200
O1966       O  0.75027433  0.61695188  0.52989144    -0.47700
C1967       C  0.76829164  0.70232615  0.61937171     0.73900
O1968       O  0.78204582  0.66856487  0.50474209    -0.59500
O1969       O  0.74210669  0.69593254  0.62002795    -0.49600
O1970       O  0.74443690  0.69405501  0.49978445    -0.56000
C1971       C  0.69190886  0.66254367  0.55489703     0.84100
O1972       O  0.76088488  0.62355628  0.60798456    -0.57800
O1973       O  0.78401834  0.68498618  0.59574315    -0.61100
In1974     In  0.60602921  0.67106944  0.04071644     1.36900
C1975       C  0.59071222  0.71514702  0.59504207     0.76500
O1976       O  0.64482680  0.66489424  0.58853847    -0.61900
O1977       O  0.64934956  0.66880861  0.00739696    -0.52800
C1978       C  0.59149560  0.61639168  0.03689425     0.69200
O1979       O  0.58910883  0.63112010  0.57738376    -0.47700
C1980       C  0.57472379  0.69406371  0.96991249     0.73900
O1981       O  0.58437389  0.68979416  0.60857556    -0.59500
O1982       O  0.60161892  0.69642210  0.96979135    -0.49600
O1983       O  0.60832028  0.71738403  0.55890621    -0.56000
C1984       C  0.66121776  0.66527764  0.55026752     0.84100
O1985       O  0.60049184  0.62986826  0.99825164    -0.57800
O1986       O  0.56405792  0.67818754  0.00406861    -0.61100
C1987       C  0.78371422  0.70803689  0.94599424     0.85500
C1988       C  0.81068923  0.72262286  0.46766710    -0.54800
C1989       C  0.82447626  0.73996584  0.93333153     0.08400
C1990       C  0.81084634  0.73979545  0.88055328     0.19300
C1991       C  0.76563437  0.73286359  0.92502143    -0.55500
C1992       C  0.78019998  0.74986176  0.89140258     0.08500
C1993       C  0.79361124  0.69142089  0.89961634    -0.55000
C1994       C  0.80838568  0.70776964  0.86603138     0.09100
H1995       H  0.81581918  0.72250879  0.50820781     0.13600
H1996       H  0.82278099  0.75292310  0.85219898    -0.00700
H1997       H  0.74388520  0.73727326  0.93704984     0.13900
H1998       H  0.79138015  0.66830184  0.89579484     0.13700
In1999     In  0.99812481  0.81774503  0.98686178     1.36900
C2000       C  0.51956648  0.78931113  0.56307525     0.76500
O2001       O  0.95850506  0.81697656  0.53256499    -0.61900
O2002       O  0.95513731  0.81905486  0.95086749    -0.52800
C2003       C  0.50974843  0.87351198  0.97676101     0.69200
O2004       O  0.50227174  0.86238525  0.01856473    -0.47700
C2005       C  0.51846300  0.77680632  0.92814155     0.73900
O2006       O  0.53216363  0.81075367  0.54384955    -0.59500
O2007       O  0.99235671  0.78324880  0.92758496    -0.49600
O2008       O  0.99476256  0.78435737  0.54667745    -0.56000
C2009       C  0.94260677  0.81716310  0.49361281     0.84100
O2010       O  0.01236811  0.85585958  0.94035489    -0.57800
O2011       O  0.53436097  0.79413511  0.95190106    -0.61100
In2012     In  0.85662944  0.80869382  0.50676602     1.36900
C2013       C  0.84029835  0.76488085  0.95223228     0.76500
O2014       O  0.89565971  0.81425483  0.45952069    -0.61900
O2015       O  0.89982060  0.81119780  0.54086402    -0.57600
C2016       C  0.84401129  0.86361129  0.51050789     0.69200
O2017       O  0.84091068  0.84897629  0.46998363    -0.47700
C2018       C  0.82512818  0.78553685  0.57767454     0.73900
O2019       O  0.83420355  0.79027298  0.93889013    -0.59500
O2020       O  0.85176356  0.78163103  0.57564414    -0.49600
O2021       O  0.85801810  0.76256955  0.48811982    -0.56000
C2022       C  0.91188563  0.81435767  0.49805539     0.84100
O2023       O  0.85262789  0.84990869  0.54908648    -0.57800
O2024       O  0.81496849  0.80310793  0.54587865    -0.61100
C2025       C  0.78298873  0.77072618  0.69591940     0.85500
C2026       C  0.79256962  0.78750250  0.64942069    -0.54800
C2027       C  0.80748509  0.77147001  0.61579199     0.08400
C2028       C  0.81020991  0.73953121  0.63022489     0.19300
C2029       C  0.76506584  0.74555057  0.67520118    -0.55500
C2030       C  0.77971454  0.72887217  0.64145193     0.08500
C2031       C  0.81018251  0.75668260  0.71734993    -0.55000
C2032       C  0.82399880  0.73961275  0.68278493     0.09100
H2033       H  0.79027541  0.81059458  0.64581684     0.13600
H2034       H  0.82215349  0.72662029  0.60171935    -0.00700
H2035       H  0.74339838  0.74068974  0.68746060     0.13900
H2036       H  0.81533805  0.75676132  0.75789746     0.13700
In2037     In  0.99738260  0.66178458  0.73535917     1.36900
C2038       C  0.51901776  0.70213061  0.67690699     0.76500
O2039       O  0.99393542  0.69464146  0.79624852    -0.61900
O2040       O  0.53119448  0.66853746  0.79326863    -0.52800
C2041       C  0.94188984  0.66321239  0.73993341     0.69200
O2042       O  0.95468736  0.66139126  0.69743160    -0.47700
C2043       C  0.50737094  0.60594309  0.72602020     0.73900
O2044       O  0.99284554  0.69571042  0.67543967    -0.59500
O2045       O  0.49873842  0.61717302  0.76691625    -0.49600
O2046       O  0.53444984  0.68508121  0.70177933    -0.56000
C2047       C  0.51858805  0.68969334  0.81304980     0.84100
O2048       O  0.95749483  0.66320755  0.77923712    -0.57800
O2049       O  0.01188884  0.62350698  0.69010004    -0.61100
In2050     In  0.85604009  0.67094216  0.75491561     1.36900
C2051       C  0.83967395  0.71472796  0.70120866     0.76500
O2052       O  0.81455495  0.67778814  0.79355165    -0.61900
O2053       O  0.85234142  0.69680523  0.82563221    -0.52800
C2054       C  0.84240001  0.61596937  0.75958937     0.69200
O2055       O  0.83994452  0.63036797  0.71877436    -0.47700
C2056       C  0.91119839  0.66588099  0.74435217     0.73900
O2057       O  0.83283688  0.68934599  0.68847127    -0.59500
O2058       O  0.89944074  0.66940940  0.78729592    -0.49600
O2059       O  0.85812490  0.71705824  0.73595792    -0.56000
C2060       C  0.82549899  0.69406115  0.82692602     0.84100
O2061       O  0.85113579  0.62987217  0.79801098    -0.57800
O2062       O  0.89469008  0.66522702  0.70619217    -0.61100
C2063       C  0.53277460  0.70827430  0.85144894     0.85500
C2064       C  0.54229697  0.69164882  0.89802904    -0.54800
C2065       C  0.55723032  0.70789026  0.93161479     0.08400
C2066       C  0.56013979  0.73980887  0.91700473     0.19300
C2067       C  0.51494367  0.73340161  0.87208942    -0.55500
C2068       C  0.52968104  0.75026771  0.90582316     0.08500
C2069       C  0.56001688  0.72244639  0.83001692    -0.55000
C2070       C  0.57390500  0.73970691  0.86442631     0.09100
H2071       H  0.53991571  0.66854384  0.90178663     0.13600
H2072       H  0.57219576  0.75281276  0.94544793    -0.00700
H2073       H  0.99328288  0.73806003  0.85983417     0.13900
H2074       H  0.56519237  0.72225807  0.78948878     0.13700
In2075     In  0.74741289  0.81713642  0.81117000     1.36900
C2076       C  0.76854878  0.77623472  0.86917171     0.76500
O2077       O  0.74405768  0.78391833  0.75082379    -0.61900
O2078       O  0.78123035  0.81061651  0.75357393    -0.52800
C2079       C  0.69184179  0.81642420  0.80531672     0.69200
O2080       O  0.70454663  0.81802279  0.84795240    -0.47700
C2081       C  0.75875494  0.87308731  0.82146250     0.73900
O2082       O  0.74234559  0.78229817  0.86991599    -0.59500
O2083       O  0.75090476  0.86197609  0.77980302    -0.49600
O2084       O  0.78412290  0.79384758  0.84549817    -0.56000
C2085       C  0.76873213  0.78915741  0.73412319     0.84100
O2086       O  0.70758727  0.81631729  0.76620324    -0.57800
O2087       O  0.76170704  0.85536025  0.85762134    -0.61100
In2088     In  0.60586805  0.80859402  0.79163671     1.36900
C2089       C  0.58970073  0.76461285  0.84563709     0.76500
O2090       O  0.56440351  0.80264250  0.75202202    -0.61900
O2091       O  0.60159477  0.78180989  0.72235400    -0.52800
C2092       C  0.59293694  0.86350190  0.78775017     0.69200
O2093       O  0.58878197  0.84862774  0.82763173    -0.47700
C2094       C  0.66109193  0.81396239  0.80093323     0.73900
O2095       O  0.58371387  0.78997111  0.85939304    -0.59500
O2096       O  0.64908310  0.81055141  0.75811729    -0.49600
O2097       O  0.60727956  0.76236814  0.80954537    -0.56000
C2098       C  0.57492855  0.78533618  0.72011354     0.84100
O2099       O  0.60275427  0.85003864  0.74980535    -0.57800
O2100       O  0.64478562  0.81449062  0.83933560    -0.61100
C2101       C  0.68784341  0.27238342  0.69325748     0.85500
C2102       C  0.69711421  0.29003097  0.64785316    -0.54800
C2103       C  0.71106183  0.27457073  0.61202658     0.08400
C2104       C  0.71387125  0.24228113  0.62430839     0.19300
C2105       C  0.66973767  0.24776888  0.67152939    -0.55500
C2106       C  0.68343087  0.23190719  0.63583331     0.08500
C2107       C  0.71519838  0.25765040  0.71306659    -0.55000
C2108       C  0.72831681  0.24078191  0.67669448     0.09100
H2109       H  0.69346575  0.31295164  0.64477289     0.13600
H2110       H  0.72502736  0.22980045  0.59417233    -0.00700
H2111       H  0.64810236  0.24299450  0.68396873     0.13900
H2112       H  0.72032311  0.25638578  0.75348353     0.13700
In2113     In  0.50253714  0.16555035  0.55867197     1.36900
C2114       C  0.96848176  0.18671232  0.98997922     0.76500
O2115       O  0.98529659  0.18977395  0.62579241    -0.61900
O2116       O  0.50798477  0.21288586  0.56807254    -0.52800
C2117       C  0.49151432  0.10942268  0.57100457     0.69200
O2118       O  0.99939795  0.12017906  0.52905123    -0.47700
C2119       C  0.55834773  0.16649916  0.55690845     0.73900
O2120       O  0.95947453  0.18054066  0.53415577    -0.59500
O2121       O  0.54463504  0.16202864  0.59772704    -0.49600
O2122       O  0.49289688  0.17717081  0.47881875    -0.56000
C2123       C  0.99223254  0.21393895  0.60700540     0.84100
O2124       O  0.48778156  0.12766124  0.60625661    -0.57800
O2125       O  0.54349275  0.17000858  0.51722079    -0.61100
In2126     In  0.64488048  0.16981938  0.05152236     1.36900
C2127       C  0.66991258  0.20729764  0.61118598     0.76500
O2128       O  0.67616085  0.17020632  0.99004593    -0.61900
O2129       O  0.64602542  0.20455143  0.99381833    -0.52800
C2130       C  0.65528156  0.11497869  0.04750159     0.69200
O2131       O  0.65802393  0.12890307  0.58887247    -0.47700
C2132       C  0.58925310  0.16781370  0.55539745     0.73900
O2133       O  0.68393120  0.18844633  0.58786502    -0.59500
O2134       O  0.60252394  0.17489354  0.01531557    -0.49600
O2135       O  0.64320498  0.20428939  0.60974070    -0.56000
C2136       C  0.66738986  0.19357207  0.97208363     0.84100
O2137       O  0.64703224  0.12908880  0.00937717    -0.57800
O2138       O  0.60449663  0.16204294  0.59385216    -0.61100
C2139       C  0.95272599  0.20560295  0.95397305     0.85500
C2140       C  0.94372885  0.18954617  0.90658301    -0.54800
C2141       C  0.92999266  0.20622884  0.87230764     0.08400
C2142       C  0.92717814  0.23784768  0.88747100     0.19300
C2143       C  0.97117930  0.23098834  0.93489088    -0.55500
C2144       C  0.95755134  0.24811331  0.90038109     0.08500
C2145       C  0.92525214  0.21968644  0.47438092    -0.55000
C2146       C  0.91230660  0.23728644  0.93921776     0.09100
H2147       H  0.94685723  0.16663323  0.90146705     0.13600
H2148       H  0.91599752  0.25103812  0.85836119    -0.00700
H2149       H  0.49284475  0.23513875  0.94798252     0.13900
H2150       H  0.91949599  0.21953573  0.51465133     0.13700
In2151     In  0.74390163  0.31336713  0.98554129     1.36900
C2152       C  0.72289667  0.28846823  0.56693450     0.76500
O2153       O  0.70596086  0.29134504  0.95106663    -0.61900
O2154       O  0.74706573  0.28008101  0.92338059    -0.52800
C2155       C  0.73541265  0.37018563  0.97680308     0.69200
O2156       O  0.74498184  0.35861050  0.01669347    -0.47700
C2157       C  0.79951826  0.31168662  0.49178026     0.73900
O2158       O  0.71570994  0.31342379  0.55344843    -0.59500
O2159       O  0.78697228  0.31651182  0.94994521    -0.49600
O2160       O  0.74129373  0.27656113  0.53931120    -0.56000
C2161       C  0.72073540  0.27429034  0.92469649     0.84100
O2162       O  0.72918553  0.35252340  0.94162340    -0.57800
O2163       O  0.78363271  0.30756029  0.52986678    -0.61100
In2164     In  0.88557762  0.30962183  0.50485437     1.36900
C2165       C  0.89732127  0.26279696  0.95659685     0.76500
O2166       O  0.92950322  0.29645175  0.52738241    -0.61900
O2167       O  0.89546808  0.29616561  0.58260078    -0.52800
C2168       C  0.89957020  0.36408204  0.50658797     0.69200
O2169       O  0.90118317  0.34940994  0.46590551    -0.47700
C2170       C  0.83026058  0.31103085  0.49633135     0.73900
O2171       O  0.90248291  0.28725485  0.93716343    -0.59500
O2172       O  0.84243974  0.30596964  0.53845710    -0.49600
O2173       O  0.88226787  0.26256073  0.49659277    -0.56000
C2174       C  0.92092166  0.28942274  0.57144696     0.84100
O2175       O  0.89090988  0.35084572  0.54560204    -0.57800
O2176       O  0.84644060  0.31555176  0.95864069    -0.61100
C2177       C  0.93818399  0.27232732  0.60763795     0.85500
C2178       C  0.96565285  0.25786234  0.58772603    -0.54800
C2179       C  0.97879932  0.24082657  0.62379059     0.08400
C2180       C  0.96430038  0.24203452  0.67616785     0.19300
C2181       C  0.92019260  0.24751717  0.62873099    -0.55500
C2182       C  0.93392126  0.23156112  0.66422048     0.08500
C2183       C  0.94725977  0.28979161  0.65349247    -0.55000
C2184       C  0.96125202  0.27424710  0.68911425     0.09100
H2185       H  0.97078350  0.25680911  0.54729338     0.13600
H2186       H  0.97547218  0.22948468  0.70616992    -0.00700
H2187       H  0.89858069  0.24272307  0.61609603     0.13900
H2188       H  0.94346530  0.31266979  0.65702504     0.13700
In2189     In  0.75310771  0.16571732  0.74095650     1.36900
C2190       C  0.71983247  0.18729740  0.81051770     0.76500
O2191       O  0.79417496  0.16913409  0.78218808    -0.61900
O2192       O  0.79501132  0.16319106  0.70105113    -0.52800
C2193       C  0.74201380  0.10951208  0.72873465     0.69200
O2194       O  0.74899271  0.12052857  0.77103140    -0.47700
C2195       C  0.74185654  0.21387941  0.69286609     0.73900
O2196       O  0.71034038  0.18050526  0.76694951    -0.59500
O2197       O  0.75890688  0.21292910  0.73004566    -0.49600
O2198       O  0.74457149  0.17832001  0.82091816    -0.56000
C2199       C  0.80886652  0.16657892  0.74208763     0.84100
O2200       O  0.73935107  0.12752404  0.69285577    -0.57800
O2201       O  0.73396305  0.18967769  0.67539715    -0.61100
In2202     In  0.89531576  0.16941764  0.74760004     1.36900
C2203       C  0.92038617  0.20690276  0.68847583     0.76500
O2204       O  0.85491750  0.16303737  0.70446669    -0.61900
O2205       O  0.85308542  0.17346955  0.78423618    -0.52800
C2206       C  0.90542058  0.11446631  0.75156736     0.69200
O2207       O  0.90803511  0.12824327  0.71008137    -0.47700
C2208       C  0.91718647  0.19362709  0.82740999     0.73900
O2209       O  0.93438303  0.18775809  0.71106639    -0.59500
O2210       O  0.89551621  0.20405100  0.80580837    -0.49600
O2211       O  0.89366072  0.20417628  0.69032213    -0.56000
C2212       C  0.83975480  0.16769369  0.74351477     0.84100
O2213       O  0.89741954  0.12874124  0.78967478    -0.57800
O2214       O  0.92681697  0.17076511  0.80873125    -0.61100
C2215       C  0.70400193  0.20602554  0.84673662     0.85500
C2216       C  0.67645965  0.21993559  0.82616619    -0.54800
C2217       C  0.66324823  0.23731899  0.86135079     0.08400
C2218       C  0.67794537  0.23791083  0.91319532     0.19300
C2219       C  0.72216734  0.23153530  0.86622918    -0.55500
C2220       C  0.70825004  0.24846846  0.90071351     0.08500
C2221       C  0.69498959  0.18979954  0.89390398    -0.55000
C2222       C  0.68088136  0.20630128  0.92803140     0.09100
H2223       H  0.67080379  0.21982474  0.78583700     0.13600
H2224       H  0.66654726  0.25096318  0.94225639    -0.00700
H2225       H  0.74382384  0.23592864  0.85338542     0.13900
H2226       H  0.69818026  0.16688226  0.89875516     0.13700
In2227     In  0.99384024  0.31305156  0.81625446     1.36900
C2228       C  0.97290284  0.28806823  0.73456367     0.76500
O2229       O  0.53369516  0.30785028  0.77248780    -0.61900
O2230       O  0.53681899  0.31591998  0.85284407    -0.52800
C2231       C  0.98594604  0.37012882  0.82392933     0.69200
O2232       O  0.99511713  0.35811181  0.78412646    -0.47700
C2233       C  0.97043985  0.27379860  0.87662991     0.73900
O2234       O  0.96413956  0.31209581  0.75026794    -0.59500
O2235       O  0.49693101  0.27878492  0.87678258    -0.49600
O2236       O  0.99279010  0.27715378  0.76010488    -0.56000
C2237       C  0.54948415  0.31152157  0.81091626     0.84100
O2238       O  0.47990403  0.35279766  0.85967094    -0.57800
O2239       O  0.95580843  0.29159335  0.85166593    -0.61100
In2240     In  0.63551616  0.30944878  0.79672189     1.36900
C2241       C  0.64795003  0.26267918  0.84431825     0.76500
O2242       O  0.59660103  0.31562538  0.84380412    -0.61900
O2243       O  0.59224747  0.30535290  0.76424730    -0.52800
C2244       C  0.64900902  0.36396506  0.79357312     0.69200
O2245       O  0.65135566  0.34954094  0.83438960    -0.47700
C2246       C  0.67064595  0.28943268  0.72964870     0.73900
O2247       O  0.65291375  0.28715288  0.86397839    -0.59500
O2248       O  0.64502375  0.29579814  0.71898073    -0.49600
O2249       O  0.63271619  0.26233828  0.80452904    -0.56000
C2250       C  0.58024501  0.31078721  0.80637311     0.84100
O2251       O  0.63987052  0.35045007  0.75513863    -0.57800
O2252       O  0.67948553  0.29681420  0.77342392    -0.61100
In2253     In  0.67336377  0.02985419  0.53438230     1.36900
C2254       C  0.62012827  0.00984519  0.54923674     0.76500
O2255       O  0.67900087  0.99570435  0.97345602    -0.61900
O2256       O  0.69386907  0.03705194  0.95479994    -0.52800
C2257       C  0.66143588  0.08471637  0.04299757     0.69200
O2258       O  0.66324225  0.07232487  0.50015175    -0.47700
C2259       C  0.71012410  0.02910671  0.61393078     0.73900
O2260       O  0.62545959  0.03526779  0.53645131    -0.59500
O2261       O  0.71567353  0.04066636  0.57140499    -0.49600
O2262       O  0.64196445  0.99413146  0.55235078    -0.56000
C2263       C  0.68830782  0.01215998  0.93885333     0.84100
O2264       O  0.66503899  0.06896934  0.08140223    -0.57800
O2265       O  0.68853730  0.01285998  0.61262528    -0.61100
C2266       C  0.51340868  0.90546194  0.97054816     0.85500
C2267       C  0.53255449  0.91974717  0.51101524    -0.54800
C2268       C  0.53480136  0.94875862  0.50586866     0.08400
C2269       C  0.51815429  0.96089444  0.95909102     0.19300
C2270       C  0.98501518  0.92124605  0.97411651    -0.55500
C2271       C  0.98687088  0.95045480  0.96834646     0.08500
C2272       C  0.52571275  0.91441708  0.91883048    -0.55000
C2273       C  0.52842764  0.94325717  0.91188924     0.09100
H2274       H  0.54306490  0.90801553  0.54150411     0.13600
H2275       H  0.52088519  0.98435502  0.95443901    -0.00700
H2276       H  0.96529669  0.90963817  0.98007482     0.13900
H2277       H  0.53239368  0.89902829  0.89006515     0.13700
C2278       C  0.59052120  0.99953310  0.56319224     0.85500
C2279       C  0.59013221  0.98710278  0.61695734    -0.54800
C2280       C  0.56427627  0.97746856  0.63315521     0.08400
C2281       C  0.54039638  0.98060698  0.59183329     0.19300
C2282       C  0.57849856  0.97623462  0.52801623    -0.55500
C2283       C  0.55206858  0.96659638  0.54184102     0.08500
C2284       C  0.56718529  0.02268684  0.56395896    -0.55000
C2285       C  0.54053404  0.01302827  0.57883287     0.09100
H2286       H  0.60892631  0.98694281  0.64144894     0.13600
H2287       H  0.51948529  0.97187905  0.60418016    -0.00700
H2288       H  0.58907673  0.96941026  0.99309657     0.13900
H2289       H  0.57176038  0.04456962  0.55273387     0.13700
In2290     In  0.57801362  0.95054382  0.78237966     1.36900
C2291       C  0.63119512  0.97143483  0.79801214     0.76500
O2292       O  0.55982240  0.94275462  0.70160778    -0.61900
O2293       O  0.56827322  0.98529115  0.72400381    -0.52800
C2294       C  0.58743834  0.89430580  0.78565228     0.69200
O2295       O  0.59156898  0.90908101  0.74589491    -0.47700
C2296       C  0.54237084  0.95341957  0.86372143     0.73900
O2297       O  0.62596271  0.94551572  0.78847019    -0.59500
O2298       O  0.53506813  0.94365726  0.82047900    -0.49600
O2299       O  0.60927823  0.98704355  0.79823200    -0.56000
C2300       C  0.56193492  0.96848724  0.68780456     0.84100
O2301       O  0.57885826  0.90825310  0.82378746    -0.57800
O2302       O  0.56601709  0.96643031  0.86308929    -0.61100
C2303       C  0.73847166  0.07734270  0.72178006     0.85500
C2304       C  0.72645466  0.06845396  0.66961914    -0.54800
C2305       C  0.72361732  0.03956840  0.66244512     0.08400
C2306       C  0.73341510  0.02185662  0.70974476     0.19300
C2307       C  0.71897794  0.06298294  0.76167550    -0.55500
C2308       C  0.71654502  0.03395903  0.75638667     0.08500
C2309       C  0.76677727  0.06124162  0.72570739    -0.55000
C2310       C  0.76475579  0.03202516  0.71927405     0.09100
H2311       H  0.72006502  0.08391018  0.64075400     0.13600
H2312       H  0.73054448  0.99842968  0.70478217    -0.00700
H2313       H  0.70836586  0.07473914  0.79204933     0.13900
H2314       H  0.78666293  0.07267415  0.73202719     0.13700
C2315       C  0.66065793  0.98242165  0.81220287     0.85500
C2316       C  0.66068221  0.99441114  0.86631453    -0.54800
C2317       C  0.68634196  0.00418127  0.88341826     0.08400
C2318       C  0.71048378  0.00173552  0.84225962     0.19300
C2319       C  0.67261944  0.00619671  0.77783664    -0.55500
C2320       C  0.69897272  0.01604497  0.79223897     0.08500
C2321       C  0.68425750  0.95963238  0.81261340    -0.55000
C2322       C  0.71069813  0.96941863  0.82841443     0.09100
H2323       H  0.64178267  0.99398063  0.89049518     0.13600
H2324       H  0.73131525  0.01042476  0.85526260    -0.00700
H2325       H  0.66213484  0.01308452  0.74287314     0.13900
H2326       H  0.67998427  0.93787550  0.80038766     0.13700
In2327     In  0.92356658  0.02948714  0.76615530     1.36900
C2328       C  0.87019569  0.00935010  0.75150317     0.76500
O2329       O  0.93952678  0.01234277  0.68853865    -0.61900
O2330       O  0.96558261  0.04147685  0.72922534    -0.52800
C2331       C  0.91150699  0.08420690  0.75638467     0.69200
O2332       O  0.91425665  0.07229866  0.79945532    -0.47700
C2333       C  0.93888194  0.01217560  0.86162419     0.73900
O2334       O  0.87548055  0.03442579  0.76646485    -0.59500
O2335       O  0.93123151  0.99524129  0.82635979    -0.49600
O2336       O  0.89214082  0.99394436  0.74653990    -0.56000
C2337       C  0.96052907  0.02933299  0.68696675     0.84100
O2338       O  0.91415600  0.06801067  0.71823225    -0.57800
O2339       O  0.94262295  0.03749732  0.84643056    -0.61100
C2340       C  0.76266543  0.90507284  0.82783152     0.85500
C2341       C  0.73442423  0.92115825  0.82475882    -0.54800
C2342       C  0.73654845  0.95035052  0.83093562     0.08400
C2343       C  0.76796417  0.96046379  0.83997094     0.19300
C2344       C  0.78180544  0.91933237  0.78736934    -0.55500
C2345       C  0.78437390  0.94832982  0.79285005     0.08500
C2346       C  0.77522956  0.91379066  0.87955330    -0.55000
C2347       C  0.77820005  0.94258615  0.88688461     0.09100
H2348       H  0.71453645  0.90969696  0.81893278     0.13600
H2349       H  0.77086334  0.98389428  0.84495201    -0.00700
H2350       H  0.79214112  0.90757416  0.75669656     0.13900
H2351       H  0.78185050  0.89827092  0.90810922     0.13700
C2352       C  0.84053476  0.99917978  0.73699655     0.85500
C2353       C  0.81722407  0.02236339  0.73660971    -0.54800
C2354       C  0.79060100  0.01285885  0.72113130     0.08400
C2355       C  0.79043904  0.98051558  0.70726076     0.19300
C2356       C  0.82835148  0.97562114  0.77138520    -0.55500
C2357       C  0.80190792  0.96613118  0.75710476     0.08500
C2358       C  0.84024453  0.98718871  0.68284846    -0.55000
C2359       C  0.81444104  0.97766840  0.66602098     0.09100
H2360       H  0.82177953  0.04416208  0.74852424     0.13600
H2361       H  0.76953053  0.97195982  0.69443534    -0.00700
H2362       H  0.83879603  0.96859519  0.80629257     0.13900
H2363       H  0.85911959  0.98719959  0.65859360     0.13700
In2364     In  0.82807591  0.95035157  0.51644214     1.36900
C2365       C  0.88124866  0.97106058  0.50108038     0.76500
O2366       O  0.81510114  0.96669319  0.93641375    -0.61900
O2367       O  0.78540975  0.94198195  0.97819182    -0.52800
C2368       C  0.83846132  0.89437626  0.51274030     0.69200
O2369       O  0.84027845  0.90870996  0.55360724    -0.47700
C2370       C  0.81234469  0.96907067  0.61095123     0.73900
O2371       O  0.87614340  0.94542448  0.51297093    -0.59500
O2372       O  0.82125249  0.98526587  0.57569158    -0.49600
O2373       O  0.85920881  0.98645603  0.49840436    -0.56000
C2374       C  0.79212065  0.95254277  0.93532514     0.84100
O2375       O  0.83198556  0.90869934  0.47374446    -0.57800
O2376       O  0.80740005  0.94386743  0.59604150    -0.61100
C2377       C  0.48815547  0.07729672  0.57835483     0.85500
C2378       C  0.51650259  0.06129673  0.57408340    -0.54800
C2379       C  0.51463350  0.03210114  0.58082292     0.08400
C2380       C  0.98338579  0.02185558  0.59091850     0.19300
C2381       C  0.96851119  0.06273835  0.53890090    -0.55500
C2382       C  0.96621819  0.03374074  0.54442676     0.08500
C2383       C  0.97649775  0.06856837  0.63081061    -0.55000
C2384       C  0.97383147  0.03970083  0.63827907     0.09100
H2385       H  0.53628165  0.07279005  0.56722806     0.13600
H2386       H  0.98060572  0.99844404  0.59611192    -0.00700
H2387       H  0.95777915  0.07433691  0.50848620     0.13900
H2388       H  0.97020944  0.08410846  0.65964607     0.13700
C2389       C  0.91075823  0.98199808  0.98734697     0.85500
C2390       C  0.93446121  0.95927204  0.98693841    -0.54800
C2391       C  0.96090705  0.96928139  0.97151968     0.08400
C2392       C  0.96059954  0.00161565  0.95827872     0.19300
C2393       C  0.92250075  0.00571863  0.52219561    -0.55500
C2394       C  0.94888196  0.01566978  0.50836327     0.08500
C2395       C  0.91095827  0.99411748  0.93335339    -0.55000
C2396       C  0.93664095  0.00405501  0.91684164     0.09100
H2397       H  0.93023635  0.93746053  0.99851404     0.13600
H2398       H  0.98140160  0.01049961  0.94567049    -0.00700
H2399       H  0.91182624  0.01250637  0.55703421     0.13900
H2400       H  0.89219260  0.99365372  0.90880081     0.13700
loop_ 
_geom_bond_atom_site_label_1 
_geom_bond_atom_site_label_2 
_geom_bond_distance 
_geom_bond_site_symmetry_2 
_ccdc_geom_bond_type 
In1           O3   2.301       .  S
In1           O4   2.259       .  S
In1          O12   2.241       .  S
In1           O6   2.238       .  S
In1           O8   2.254       .  S
In1           O9   2.262       .  S
In1          O10   2.265       .  S
In1          O13   2.309       .  S
C2            O8   1.256       .  A
C2           O10   1.264       .  A
C2           C26   1.508       .  S
O3           C11   1.259       .  A
O4           C11   1.263       .  A
C5           O12   1.257       .  A
C5            O6   1.262       .  A
C5          C444   1.453       .  S
C7            O9   1.263       .  A
C7           O13   1.259       .  A
C7           C57   1.495       .  S
C11          C45   1.491       .  S
C14         C243   1.504       .  S
C14          C20   1.525       .  S
C14          C18   1.534       .  S
C14        C1215   1.526   1_455  S
C15        C1214   1.526       .  S
C15          H22   1.088       .  S
C15          C16   1.372       .  D
C16        C1217   1.559       .  S
C16         C144   1.504       .  S
C17          C21   1.559       .  S
C17          C19   1.560       .  S
C17        C1216   1.559   1_455  S
C17          H23   1.108       .  S
C18          H24   1.087       .  S
C18          C19   1.363       .  D
C19          C31   1.492       .  S
C20          H25   1.087       .  S
C20          C21   1.361       .  D
C21          C72   1.490       .  S
C26          C27   1.541       .  S
C26          C32   1.518       .  S
C26          C30   1.527       .  S
C27          H34   1.084       .  S
C27          C28   1.379       .  D
C28          C29   1.551       .  S
C28         C130   1.508       .  S
C29          C33   1.565       .  S
C29          C31   1.563       .  S
C29          H35   1.107       .  S
C30          H36   1.087       .  S
C30          C31   1.364       .  D
C32          H37   1.088       .  S
C32          C33   1.357       .  D
C33          C68   1.496       .  S
C38         C355   1.519       .  S
C38          C39   1.532       .  S
C38          C44   1.527       .  S
C38         C642   1.540       .  S
C39          H46   1.084       .  S
C39          C40   1.376       .  D
C40          C41   1.560       .  S
C40         C105   1.510       .  S
C41          C45   1.557       .  S
C41          C43   1.561       .  S
C41          H47   1.108       .  S
C42         C638   1.540   1_554  S
C42          H48   1.086       .  S
C42         C643   1.367       .  D
C43         C642   1.367       .  D
C43         C655   1.503       .  S
C44          H49   1.087       .  S
C44          C45   1.362       .  D
C50          C63   1.517       .  S
C50          C51   1.537       .  S
C50          C56   1.520       .  S
C50          C54   1.534       .  S
C51          H58   1.083       .  S
C51          C52   1.380       .  D
C52          C53   1.549       .  S
C52          C93   1.504       .  S
C53          C57   1.564       .  S
C53          C55   1.563       .  S
C53          H59   1.107       .  S
C54         H660   1.086   1_554  S
C54          C55   1.369       .  D
C55         C643   1.503       .  S
C56          H61   1.088       .  S
C56          C57   1.358       .  D
H60         C654   1.086       .  S
In62         O64   2.300       .  S
In62         O65   2.263       .  S
In62         O67   2.256   1_554  S
In62         O69   2.269       .  S
In62         O71   2.268       .  S
In62        O673   2.248       .  S
In62        O670   2.253   1_554  S
In62        O674   2.322   1_554  S
C63          O69   1.260       .  A
C63          O71   1.263       .  A
O64          C72   1.258       .  A
O65          C72   1.263       .  A
C66          O73   1.256       .  A
C66         O667   1.261       .  A
C66         C178   1.462       .  S
O67         C666   1.261   1_556  A
C68          O70   1.261       .  A
C68          O74   1.259       .  A
O70        In662   2.252       .  S
O73        In662   2.248       .  S
O74        In662   2.322       .  S
In75         O77   2.314       .  S
In75         O78   2.257       .  S
In75         O86   2.243   1_554  S
In75         O80   2.237       .  S
In75         O82   2.258       .  S
In75         O84   2.264   1_554  S
In75        O683   2.258   1_554  S
In75        O687   2.302   1_554  S
C76          O82   1.256   1_556  A
C76          O84   1.265       .  A
C76         C100   1.510       .  S
O77          C85   1.259       .  A
O78          C85   1.263       .  A
C79          O86   1.257   1_554  A
C79          O80   1.261       .  A
C79         C368   1.453       .  S
C81          O83   1.262       .  A
C81          O87   1.259       .  A
C81         C132   1.491       .  S
O83        In675   2.258       .  S
C85         C139   1.496       .  S
O87        In675   2.302       .  S
C88         C165   1.503       .  S
C88          C89   1.534       .  S
C88          C94   1.525       .  S
C88          C92   1.525       .  S
C89          H96   1.087       .  S
C89          C90   1.362       .  D
C90          C91   1.560       .  S
C90         C102   1.492       .  S
C91          C95   1.559       .  S
C91          C93   1.559       .  S
C91          H97   1.108       .  S
C92          H98   1.084       .  S
C92          C93   1.372       .  D
C94          H99   1.087       .  S
C94          C95   1.362       .  D
C95         C118   1.491       .  S
C100        C101   1.527   1_556  S
C100        C706   1.517       .  S
C100        C704   1.541       .  S
C101        H108   1.087       .  S
C101        C102   1.364       .  D
C102        C703   1.563   1_554  S
C103        C107   1.566       .  S
C103        C105   1.551       .  S
C103        C702   1.563       .  S
C103        H109   1.107       .  S
C104        C700   1.541       .  S
C104        H110   1.083       .  S
C104        C105   1.381       .  D
C106        C700   1.517       .  S
C106        H111   1.088       .  S
C106        C107   1.357       .  D
C107        C122   1.497       .  S
In112       O114   2.325       .  S
In112       O115   2.252       .  S
In112       O123   2.249       .  S
In112       O117   2.259       .  S
In112       O119   2.267       .  S
In112       O120   2.261       .  S
In112       O121   2.269       .  S
In112       O124   2.302       .  S
C113        O119   1.260       .  A
C113        O121   1.264       .  A
C113        C137   1.517       .  S
O114        C122   1.259       .  A
O115        C122   1.261       .  A
C116        O123   1.257       .  A
C116        O117   1.262       .  A
C116        C254   1.464       .  S
C118        O120   1.263       .  A
C118        O124   1.258       .  A
C125        C431   1.521       .  S
C125        C126   1.541       .  S
C125        C131   1.527       .  S
C125       C1329   1.533       .  S
C126        H133   1.086       .  S
C126        C127   1.367       .  D
C127        C128   1.560       .  S
C127        C142   1.503       .  S
C128        C132   1.556       .  S
C128       C1330   1.559       .  S
C128        H134   1.108       .  S
C129       C1325   1.533   1_455  S
C129        H135   1.084       .  S
C129        C130   1.377       .  D
C130       C1328   1.559   1_455  S
C131        H136   1.087       .  S
C131        C132   1.362       .  D
C137        C138   1.519       .  S
C137        C143   1.537       .  S
C137        C141   1.534       .  S
C138        H145   1.088       .  S
C138        C139   1.358       .  D
C139        C140   1.565       .  S
C140        C144   1.549       .  S
C140        C142   1.564       .  S
C140        H146   1.108       .  S
C141        H147   1.086       .  S
C141        C142   1.369       .  D
C143        H148   1.087       .  S
C143        C144   1.379       .  D
C149        C200   1.478       .  S
C149        C150   1.541       .  S
C149        C155   1.511       .  S
C149        C153   1.538       .  S
C150        H757   1.086       .  S
C150        C151   1.369       .  D
C151        C175   1.461       .  S
C151        C152   1.520       .  S
C152        C156   1.543       .  S
C152        C154   1.538       .  S
C152        H158   1.111       .  S
C153       H1359   1.087   1_455  S
C153        C154   1.364       .  D
C154        C238   1.465       .  S
C155        H160   1.087       .  S
C155        C156   1.350       .  D
C156        C298   1.447       .  S
H157        C750   1.086       .  S
H159       C1353   1.087       .  S
In161       O163   2.202       .  S
In161       O164   2.226       .  S
In161       O172   2.248       .  S
In161       O166   2.237       .  S
In161       O168   2.214       .  S
In161       O169   2.238       .  S
In161       O170   2.212   1_554  S
In161       O173   2.221       .  S
C162        O768   1.263       .  A
C162        O770   1.258       .  A
C162        C187   1.481       .  S
O163        C171   1.261       .  A
O164        C171   1.265       .  A
C165        O172   1.264       .  A
C165        O166   1.258       .  A
C167        O169   1.261       .  A
C167        O173   1.259       .  A
C167        C230   1.464       .  S
O168        C762   1.263   1_554  A
O170        C762   1.258       .  A
C171        C184   1.449       .  S
In174       O177   2.211       .  S
In174       O185   2.232       .  S
In174       O182   2.210       .  S
In174       O186   2.213       .  S
In174       O776   2.225       .  S
In174       O779   2.237       .  S
In174       O781   2.224       .  S
In174       O783   2.213       .  S
C175        O181   1.268       .  A
C175        O183   1.258       .  A
O176       In774   2.225       .  S
O176        C184   1.261       .  A
O177        C784   1.262       .  A
C178        O185   1.261       .  A
C178        O779   1.266       .  A
O179       In774   2.237       .  S
O179        C778   1.266       .  A
C180        O182   1.264       .  A
C180        O186   1.262       .  A
C180        C265   1.448       .  S
O181       In774   2.224       .  S
O183       In774   2.213       .  S
C184        O777   1.262       .  A
C187        C193   1.512       .  S
C187        C191   1.540       .  S
C187        C788   1.539       .  S
C188        C787   1.539       .  S
C188        H195   1.086   1_556  S
C188        C789   1.368       .  D
C189        C213   1.460       .  S
C189        C190   1.519       .  S
C189        C788   1.368       .  D
C190        C194   1.544       .  S
C190        C192   1.539       .  S
C190        H196   1.111       .  S
C191        H197   1.087       .  S
C191        C192   1.364       .  D
C192        C276   1.469       .  S
C193        H198   1.087       .  S
C193        C194   1.351       .  D
C194        C260   1.450       .  S
In199       O202   2.223       .  S
In199       O210   2.252       .  S
In199       O207   2.247       .  S
In199       O801   2.207       .  S
In199      O1404   2.247       .  S
In199      O2006   2.207       .  S
In199       O808   2.212       .  S
In199      O1411   2.225       .  S
C200        O206   1.263       .  A
C200       O1408   1.258   1_455  A
O201       In799   2.207   1_554  S
O201        C209   1.261   1_554  A
O202        C809   1.265       .  A
C203        O204   1.259       .  A
C203       O1410   1.264       .  A
C203        C466   1.508       .  S
O204      In1399   2.247   1_455  S
C205        O211   1.259       .  A
C205       O1407   1.261   1_455  A
C205        C268   1.468       .  S
O206      In1999   2.207   1_454  S
O207       C1405   1.261       .  A
O208       In799   2.212   1_554  S
O208       C1400   1.258       .  A
C209        O802   1.265       .  A
C209        C222   1.449       .  S
O210       C1403   1.264       .  A
O211      In1399   2.225   1_455  S
In212       O214   2.221   1_554  S
In212       O215   2.212       .  S
In212       O223   2.226       .  S
In212       O217   2.239   1_554  S
In212       O220   2.211       .  S
In212       O221   2.207   1_554  S
In212       O224   2.217       .  S
In212       O819   2.230   1_554  S
C213        O219   1.269       .  A
C213        O821   1.257       .  A
O214        C222   1.261       .  A
O215        C222   1.262   1_554  A
C216        O223   1.262       .  A
C216        O217   1.267   1_554  A
C216        C568   1.461       .  S
C218        O220   1.263       .  A
C218        O224   1.263       .  A
C218        C227   1.450       .  S
O219       In812   2.230       .  S
O221        C813   1.257       .  A
C225        C285   1.479       .  S
C225        C226   1.513       .  S
C225        C231   1.541       .  S
C225        C229   1.537       .  S
C226        H233   1.087       .  S
C226        C227   1.351       .  D
C227        C228   1.543       .  S
C228        C232   1.517       .  S
C228        C230   1.538       .  S
C228        H234   1.111       .  S
C229        H235   1.087       .  S
C229        C230   1.363       .  D
C231        H236   1.087       .  S
C231        C232   1.369       .  D
C232        C251   1.459       .  S
In237       O239   2.215       .  S
In237       O248   2.194       .  S
In237       O242   2.231       .  S
In237       O244   2.238       .  S
In237       O249   2.249       .  S
In237      O1440   2.211       .  S
In237      O1445   2.240       .  S
In237      O1446   2.224       .  S
C238        O246   1.259       .  A
C238       O1444   1.261   1_455  A
O239       C1447   1.258       .  A
O240      In1437   2.211   1_455  S
O240        C247   1.263       .  A
C241        O248   1.260       .  A
C241        O242   1.265       .  A
C241        C256   1.448       .  S
C243        O245   1.258   1_455  A
C243       O1449   1.264       .  A
O244       C1438   1.261       .  A
O245      In1437   2.240       .  S
O246      In1437   2.224   1_455  S
C247       O1439   1.258   1_455  A
C247        C263   1.480       .  S
O249       C1443   1.264       .  A
In250       O252   2.215       .  S
In250       O253   2.213       .  S
In250       O261   2.234       .  S
In250       O255   2.241       .  S
In250       O257   2.224       .  S
In250       O258   2.203       .  S
In250       O259   2.209       .  S
In250       O262   2.231       .  S
C251        O257   1.269       .  A
C251        O259   1.257       .  A
O252        C260   1.262       .  A
O253        C260   1.263       .  A
C254        O261   1.261       .  A
C254        O255   1.267       .  A
C256        O258   1.261       .  A
C256        O262   1.262       .  A
C263        C264   1.512       .  S
C263        C269   1.540       .  S
C263        C267   1.540       .  S
C264        H271   1.087       .  S
C264        C265   1.351       .  D
C265        C266   1.543       .  S
C266        C270   1.518       .  S
C266        C268   1.538       .  S
C266        H272   1.111       .  S
C267       H1473   1.087   1_455  S
C267        C268   1.365       .  D
C269        H274   1.087       .  S
C269        C270   1.368       .  D
C270        C289   1.459       .  S
H273       C1467   1.087       .  S
In275       O277   2.214       .  S
In275       O278   2.208       .  S
In275       O286   2.204       .  S
In275       O280   2.227       .  S
In275       O282   2.248       .  S
In275       O283   2.252       .  S
In275       O284   2.228       .  S
In275       O287   2.254       .  S
C276        O282   1.261       .  A
C276        O284   1.259       .  A
O277        C285   1.258       .  A
O278        C285   1.263       .  A
C279        O286   1.261       .  A
C279        O280   1.265       .  A
C279        C294   1.449       .  S
C281        O283   1.259       .  A
C281        O287   1.264       .  A
C281        C540   1.511       .  S
In288       O290   2.216       .  S
In288       O291   2.207       .  S
In288       O299   2.227       .  S
In288       O293   2.242       .  S
In288       O295   2.227       .  S
In288       O296   2.207       .  S
In288       O297   2.208       .  S
In288       O300   2.223       .  S
C289        O295   1.269       .  A
C289        O297   1.257       .  A
O290        C298   1.262       .  A
O291        C298   1.262       .  A
C292        O299   1.262       .  A
C292        O293   1.267       .  A
C292        C494   1.462       .  S
C294        O296   1.262       .  A
C294        O300   1.262       .  A
C301        C446   1.481       .  S
C301        C302   1.507       .  S
C301        C307   1.547       .  S
C301        C305   1.532       .  S
C302        H309   1.087       .  S
C302        C303   1.352       .  D
C303        C352   1.454       .  S
C303        C304   1.546       .  S
C304        C308   1.529       .  S
C304        C306   1.533       .  S
C304        H310   1.111       .  S
C305        H311   1.086       .  S
C305        C306   1.354       .  D
C306        C327   1.457       .  S
C307        H312   1.085       .  S
C307        C308   1.380       .  D
C308        C395   1.471       .  S
In313       O316   2.234       .  S
In313       O324   2.267   1_455  S
In313       O321   2.227       .  S
In313       O322   2.204   1_454  S
In313       O325   2.212       .  S
In313      O1515   2.239   1_455  S
In313      O1518   2.256   1_455  S
In313      O1520   2.232   1_455  S
C314        O920   1.262       .  A
C314       O2122   1.264       .  A
C314        C339   1.488       .  S
O315      In1513   2.239       .  S
O315        C323   1.270       .  A
O316       C1523   1.258   1_455  A
C317        O324   1.266       .  A
C317       O1518   1.261       .  A
C317        C577   1.518       .  S
O318      In1513   2.256       .  S
O318       C1517   1.261       .  A
C319        O321   1.262       .  A
C319        O325   1.260       .  A
C319        C332   1.449       .  S
O320      In1513   2.232       .  S
O320        C914   1.262   1_554  A
O322       C2114   1.264       .  A
C323       O1516   1.258       .  A
C323        C379   1.473       .  S
In326       O328   2.175       .  S
In326       O329   2.215       .  S
In326       O337   2.198       .  S
In326       O334   2.211       .  S
In326       O931   2.234       .  S
In326       O933   2.231       .  S
In326       O935   2.214       .  S
In326       O938   2.220       .  S
C327        O333   1.258       .  A
C327        O335   1.258       .  A
O328        C336   1.258       .  A
O329        C336   1.262       .  A
C330        O337   1.257       .  A
C330        O931   1.267       .  A
C330        C457   1.447       .  S
O331       In926   2.234       .  S
O331        C930   1.267       .  A
C332        O338   1.263       .  A
C332        O934   1.262       .  A
O333       In926   2.231       .  S
O334        C932   1.262       .  A
O335       In926   2.214       .  S
C336        C422   1.440       .  S
O338       In926   2.220       .  S
C339        C340   1.505       .  S
C339        C343   1.545       .  S
C339        C945   1.543       .  S
C340        H347   1.088       .  S
C340        C341   1.352       .  D
C341        C408   1.441       .  S
C341        C342   1.533       .  S
C342        C346   1.522       .  S
C342        C344   1.536       .  S
C342        H348   1.112       .  S
C343       H1549   1.087       .  S
C343        C344   1.366       .  D
C344        C433   1.476       .  S
C345        C939   1.543       .  S
C345        H350   1.087   1_556  S
C345        C946   1.375       .  D
C346        C365   1.457       .  S
C346        C945   1.375       .  D
H349       C1543   1.087       .  S
In351       O353   2.236       .  S
In351       O354   2.251       .  S
In351       O362   2.268       .  S
In351       O356   2.261       .  S
In351       O359   2.226       .  S
In351       O958   2.212       .  S
In351       O960   2.223       .  S
In351       O963   2.210       .  S
C352        O358   1.264       .  A
C352        O360   1.256       .  A
O353        C361   1.262       .  A
O354        C361   1.261       .  A
C355        O362   1.267       .  A
C355        O356   1.258       .  A
C357        O363   1.257   1_556  A
C357        O959   1.262       .  A
C357        C370   1.445       .  S
O358       In951   2.212   1_554  S
O359        C957   1.262       .  A
O360       In951   2.222   1_554  S
C361        C420   1.475       .  S
O363       In951   2.210   1_554  S
In364       O366   2.229       .  S
In364       O367   2.177       .  S
In364       O375   2.210       .  S
In364       O369   2.237   1_554  S
In364       O372   2.209       .  S
In364       O373   2.210   1_554  S
In364       O971   2.203   1_554  S
In364       O976   2.214   1_554  S
C365        O371   1.271       .  A
C365        O973   1.261       .  A
O366        C374   1.263       .  A
O367        C374   1.269       .  A
C368        O375   1.259       .  A
C368        O369   1.266   1_554  A
C370        O372   1.263   1_556  A
C370        O976   1.261       .  A
O371       In964   2.203       .  S
O373        C965   1.261       .  A
C374        C377   1.481       .  S
O376       In964   2.214       .  S
O376        C970   1.261       .  A
C377        C378   1.546       .  S
C377        C383   1.508       .  S
C377        C381   1.531       .  S
C378        H385   1.085       .  S
C378        C379   1.380       .  D
C379        C380   1.529       .  S
C380        C384   1.547       .  S
C380        C382   1.534       .  S
C380        H386   1.111       .  S
C381        H387   1.086       .  S
C381        C382   1.354       .  D
C382        C403   1.456       .  S
C383        H388   1.087       .  S
C383        C384   1.352       .  D
C384        C428   1.455       .  S
In389       O391   2.209       .  S
In389       O392   2.227       .  S
In389       O400   2.269       .  S
In389       O394   2.257       .  S
In389       O396   2.229       .  S
In389       O397   2.236       .  S
In389       O398   2.207       .  S
In389       O401   2.236       .  S
C390        O396   1.261       .  A
C390        O398   1.264       .  A
C390        C415   1.488       .  S
O391        C399   1.260       .  A
O392        C399   1.262       .  A
C393        O400   1.266       .  A
C393        O394   1.261       .  A
C393        C503   1.519       .  S
C395        O397   1.258       .  A
C395        O401   1.270       .  A
C399        C412   1.448       .  S
In402       O404   2.220       .  S
In402       O405   2.207       .  S
In402       O413   2.196       .  S
In402       O407   2.239       .  S
In402       O409   2.231       .  S
In402       O410   2.218       .  S
In402       O411   2.209       .  S
In402       O414   2.175       .  S
C403        O409   1.258       .  A
C403        O411   1.258       .  A
O404        C412   1.263       .  A
O405        C412   1.262       .  A
C406        O413   1.256       .  A
C406        O407   1.266       .  A
C406        C531   1.447       .  S
C408        O410   1.261       .  A
C408        O414   1.258       .  A
C415        C416   1.544       .  S
C415        C421   1.506       .  S
C415        C419   1.544       .  S
C416        H423   1.087       .  S
C416        C417   1.375       .  D
C417        C441   1.456       .  S
C417        C418   1.519       .  S
C418        C422   1.532       .  S
C418        C420   1.535       .  S
C418        H424   1.112       .  S
C419        H425   1.087       .  S
C419        C420   1.366       .  D
C421        H426   1.088       .  S
C421        C422   1.353       .  D
In427       O432   2.265       .  S
In427       O434   2.215       .  S
In427       O436   2.226       .  S
In427       O439   2.239       .  S
In427      O1629   2.204       .  S
In427      O1630   2.231       .  S
In427      O1638   2.272       .  S
In427      O1635   2.255       .  S
C428        O434   1.264       .  A
C428        O436   1.256       .  A
O429      In1627   2.204   1_455  S
O429        C437   1.258       .  A
O430      In1627   2.231   1_455  S
O430        C437   1.263       .  A
C431        O432   1.258       .  A
C431       O1638   1.267       .  A
C433        O439   1.261       .  A
C433       O1635   1.261       .  A
O435      In1627   2.255       .  S
O435       C1633   1.261       .  A
C437        C450   1.446       .  S
O438      In1627   2.272       .  S
O438       C1631   1.267       .  A
In440       O442   2.220       .  S
In440       O443   2.204       .  S
In440       O451   2.209       .  S
In440       O445   2.235       .  S
In440       O447   2.201       .  S
In440       O448   2.175       .  S
In440       O449   2.210       .  S
In440       O452   2.230       .  S
C441        O447   1.271       .  A
C441        O449   1.261       .  A
O442        C450   1.261       .  A
O443        C450   1.263       .  A
C444        O451   1.259       .  A
C444        O445   1.267       .  A
C446        O448   1.269       .  A
C446        O452   1.263       .  A
In453       O458   2.228       .  S
In453       O460   2.260       .  S
In453       O461   2.259       .  S
In453       O462   2.266   1_545  S
In453       O465   2.307       .  S
In453      O1055   2.267   1_544  S
In453      O1056   2.315   1_554  S
In453      O1064   2.235       .  S
C454        O460   1.256       .  A
C454        O462   1.264   1_545  A
C454        C478   1.510   1_545  S
O455      In1053   2.267   1_565  S
O455        C463   1.263   1_565  A
O456      In1053   2.315       .  S
O456        C463   1.259       .  A
C457        O464   1.256       .  A
C457       O1058   1.263       .  A
O458       C1057   1.263       .  A
C459        O461   1.262       .  A
C459        O465   1.260       .  A
C459        C505   1.496       .  S
C463        C517   1.498       .  S
O464      In1053   2.235       .  S
C466        C472   1.527       .  S
C466       C1067   1.535       .  S
C466       C1670   1.527   1_455  S
C467       C1066   1.535   1_554  S
C467        H474   1.086       .  S
C467        C468   1.363       .  D
C468       C1069   1.558   1_554  S
C468        C483   1.490       .  S
C469        C473   1.560       .  S
C469       C1068   1.558       .  S
C469       C1671   1.560   1_455  S
C469        H475   1.108       .  S
C470       C1666   1.527       .  S
C470        H476   1.079       .  S
C470        C471   1.373       .  D
C471       C1669   1.560       .  S
C471        C591   1.506       .  S
C472        H477   1.086       .  S
C472        C473   1.363       .  D
C473        C496   1.495       .  S
C478        C479   1.521       .  S
C478        C484   1.541   1_565  S
C478        C482   1.527       .  S
C479        H486   1.088       .  S
C479        C480   1.357       .  D
C480        C500   1.493       .  S
C480        C481   1.562       .  S
C481        C485   1.550   1_565  S
C481        C483   1.561       .  S
C481        H487   1.107       .  S
C482       H1088   1.087   1_554  S
C482        C483   1.364       .  D
C484        H489   1.082       .  S
C484        C485   1.381       .  D
C485        C579   1.509       .  S
H488       C1082   1.087       .  S
In490       O492   2.303       .  S
In490       O493   2.275       .  S
In490       O501   2.251       .  S
In490       O495   2.250       .  S
In490       O497   2.265       .  S
In490       O498   2.266       .  S
In490       O499   2.277       .  S
In490       O502   2.306       .  S
C491        O497   1.257       .  A
C491        O499   1.262       .  A
C491        C515   1.515       .  S
O492        C500   1.257       .  A
O493        C500   1.262       .  A
C494        O501   1.257       .  A
C494        O495   1.262       .  A
C496        O498   1.264       .  A
C496        O502   1.260       .  A
C503        C504   1.530       .  S
C503        C509   1.531       .  S
C503        C507   1.538       .  S
C504        H511   1.087       .  S
C504        C505   1.366       .  D
C505        C506   1.558       .  S
C506        C510   1.560       .  S
C506        C508   1.560       .  S
C506        H512   1.108   1_545  S
C507        H513   1.087       .  S
C507        C508   1.365       .  D
C508        C520   1.499       .  S
C509        H514   1.083       .  S
C509        C510   1.376       .  D
C510        C554   1.510       .  S
C515        C516   1.520       .  S
C515        C521   1.538       .  S
C515        C519   1.531   1_565  S
C516        H523   1.088       .  S
C516        C517   1.358   1_565  D
C517        C518   1.566       .  S
C518        C522   1.550   1_545  S
C518        C520   1.565       .  S
C518        H524   1.107       .  S
C519        H525   1.087       .  S
C519        C520   1.367       .  D
C521        H526   1.081       .  S
C521        C522   1.380       .  D
C522        C542   1.508       .  S
In527       O529   2.306       .  S
In527       O530   2.260       .  S
In527       O538   2.237       .  S
In527       O532   2.223       .  S
In527       O534   2.265       .  S
In527       O535   2.273   1_545  S
In527       O536   2.269   1_545  S
In527       O539   2.309       .  S
C528        O534   1.256       .  A
C528        O536   1.264   1_545  A
C528        C552   1.513   1_545  S
O529        C537   1.260       .  A
O530        C537   1.262       .  A
C531        O538   1.257       .  A
C531        O532   1.262       .  A
C533        O535   1.263   1_545  A
C533        O539   1.258       .  A
C533        C596   1.496       .  S
C537        C584   1.496       .  S
C540        C541   1.527       .  S
C540        C546   1.528       .  S
C540        C544   1.536       .  S
C541        H548   1.082       .  S
C541        C542   1.374       .  D
C542        C543   1.560       .  S
C543        C547   1.560       .  S
C543        C545   1.559       .  S
C543        H549   1.108       .  S
C544        H550   1.086       .  S
C544        C545   1.364       .  D
C545        C557   1.494       .  S
C546        H551   1.086       .  S
C546        C547   1.363       .  D
C547        C574   1.496       .  S
C552        C553   1.541   1_565  S
C552        C558   1.521       .  S
C552        C556   1.528       .  S
C553        H560   1.083       .  S
C553        C554   1.381       .  D
C554        C555   1.551   1_545  S
C555        C559   1.564       .  S
C555        C557   1.562       .  S
C555        H561   1.107       .  S
C556        H562   1.087       .  S
C556        C557   1.365       .  D
C558        H563   1.088       .  S
C558        C559   1.358       .  D
C559        C570   1.496       .  S
In564       O575   2.248   1_554  S
In564       O569   2.249       .  S
In564       O571   2.266       .  S
In564       O572   2.270       .  S
In564       O573   2.271   1_554  S
In564       O576   2.314       .  S
In564      O1166   2.309   1_554  S
In564      O1167   2.265   1_554  S
C565        O571   1.257       .  A
C565        O573   1.263   1_554  A
C565       C1189   1.515   1_554  S
O566      In1164   2.309       .  S
O566        C574   1.260       .  A
O567      In1164   2.265       .  S
O567        C574   1.263       .  A
C568        O575   1.257   1_554  A
C568        O569   1.262       .  A
C570        O572   1.262       .  A
C570        O576   1.258       .  A
C577        C578   1.531   1_655  S
C577       C1783   1.530       .  S
C577       C1781   1.536       .  S
C578        H585   1.083       .  S
C578        C579   1.375       .  D
C579       C1780   1.560   1_455  S
C580        C584   1.558       .  S
C580        C582   1.561       .  S
C580       C1779   1.560       .  S
C580        H586   1.107   1_545  S
C581       C1777   1.536       .  S
C581        H587   1.087       .  S
C581        C582   1.364       .  D
C582        C594   1.499       .  S
C583       C1777   1.530       .  S
C583        H588   1.087       .  S
C583        C584   1.366       .  D
C589       C1165   1.515       .  S
C589        C590   1.539       .  S
C589        C595   1.521       .  S
C589       C1193   1.532   1_565  S
C590        H597   1.079       .  S
C590        C591   1.382       .  D
C591        C592   1.548   1_565  S
C592        C596   1.564       .  S
C592       C1194   1.564       .  S
C592        H598   1.107       .  S
C593       C1189   1.531   1_544  S
C593        H599   1.087       .  S
C593        C594   1.366       .  D
C594       C1192   1.564   1_554  S
C595        H600   1.088       .  S
C595        C596   1.357   1_565  D
In601       O603   2.301       .  S
In601       O604   2.259       .  S
In601       O612   2.241       .  S
In601       O606   2.238       .  S
In601       O608   2.254       .  S
In601       O609   2.262       .  S
In601       O610   2.265       .  S
In601       O613   2.309       .  S
C602        O608   1.256       .  A
C602        O610   1.264       .  A
C602        C626   1.508       .  S
O603        C611   1.259       .  A
O604        C611   1.263       .  A
C605        O612   1.257       .  A
C605        O606   1.262       .  A
C605       C1044   1.453       .  S
C607        O609   1.263       .  A
C607        O613   1.259       .  A
C607        C657   1.495       .  S
C611        C645   1.491       .  S
C614        C843   1.504       .  S
C614       C1815   1.526   1_455  S
C614        C620   1.525       .  S
C614        C618   1.534       .  S
C615       C1814   1.526       .  S
C615        H622   1.088       .  S
C615        C616   1.373       .  D
C616       C1817   1.559       .  S
C616        C744   1.504       .  S
C617       C1816   1.559   1_455  S
C617        C621   1.559       .  S
C617        C619   1.560       .  S
C617        H623   1.108       .  S
C618        H624   1.086       .  S
C618        C619   1.363       .  D
C619        C631   1.492       .  S
C620        H625   1.087       .  S
C620        C621   1.361       .  D
C621        C672   1.490       .  S
C626        C627   1.541       .  S
C626        C632   1.518       .  S
C626        C630   1.527       .  S
C627        H634   1.084       .  S
C627        C628   1.379       .  D
C628        C629   1.551       .  S
C628        C730   1.508       .  S
C629        C633   1.565       .  S
C629        C631   1.563       .  S
C629        H635   1.107       .  S
C630        H636   1.087       .  S
C630        C631   1.364       .  D
C632        H637   1.088       .  S
C632        C633   1.357       .  D
C633        C668   1.496       .  S
C638        C955   1.519       .  S
C638        C639   1.532       .  S
C638        C644   1.527       .  S
C639        H646   1.083       .  S
C639        C640   1.376       .  D
C640        C641   1.560       .  S
C640        C705   1.510       .  S
C641        C645   1.557       .  S
C641        C643   1.561   1_556  S
C641        H647   1.108       .  S
C642        H648   1.086       .  S
C644        H649   1.087       .  S
C644        C645   1.362       .  D
C650        C663   1.517       .  S
C650        C651   1.537       .  S
C650        C656   1.520       .  S
C650        C654   1.534       .  S
C651        H658   1.083       .  S
C651        C652   1.380       .  D
C652        C653   1.549       .  S
C652        C693   1.504       .  S
C653        C657   1.564       .  S
C653        C655   1.563       .  S
C653        H659   1.107       .  S
C654        C655   1.369       .  D
C656        H661   1.088       .  S
C656        C657   1.358       .  D
In662       O664   2.300       .  S
In662       O665   2.263       .  S
In662       O667   2.256       .  S
In662       O669   2.269       .  S
In662       O671   2.268       .  S
C663        O669   1.260       .  A
C663        O671   1.263       .  A
O664        C672   1.258       .  A
O665        C672   1.263       .  A
C666        O673   1.256       .  A
C666        C778   1.462       .  S
C668        O670   1.261       .  A
C668        O674   1.259       .  A
In675       O677   2.314       .  S
In675       O678   2.257       .  S
In675       O686   2.243       .  S
In675       O680   2.237       .  S
In675       O682   2.258       .  S
In675       O684   2.264       .  S
C676        O682   1.256       .  A
C676        O684   1.265       .  A
C676        C700   1.510       .  S
O677        C685   1.259       .  A
O678        C685   1.263       .  A
C679        O686   1.257       .  A
C679        O680   1.261       .  A
C679        C968   1.453       .  S
C681        O683   1.262       .  A
C681        O687   1.259       .  A
C681        C732   1.491       .  S
C685        C739   1.496       .  S
C688        C765   1.503       .  S
C688        C689   1.534       .  S
C688        C694   1.525       .  S
C688        C692   1.525       .  S
C689        H696   1.087       .  S
C689        C690   1.362       .  D
C690        C691   1.560       .  S
C690        C702   1.492       .  S
C691        C695   1.559       .  S
C691        C693   1.559       .  S
C691        H697   1.108       .  S
C692        H698   1.084       .  S
C692        C693   1.372       .  D
C694        H699   1.087       .  S
C694        C695   1.362       .  D
C695        C718   1.491       .  S
C700        C701   1.527       .  S
C701        H708   1.087       .  S
C701        C702   1.364       .  D
C703        C707   1.566       .  S
C703        C705   1.551       .  S
C703        H709   1.107       .  S
C704        H710   1.083       .  S
C704        C705   1.381       .  D
C706        H711   1.089       .  S
C706        C707   1.357       .  D
C707        C722   1.497       .  S
In712       O714   2.324       .  S
In712       O715   2.252       .  S
In712       O723   2.249       .  S
In712       O717   2.259       .  S
In712       O719   2.267       .  S
In712       O720   2.261       .  S
In712       O721   2.269       .  S
In712       O724   2.302       .  S
C713        O719   1.260       .  A
C713        O721   1.264       .  A
C713        C737   1.517       .  S
O714        C722   1.259       .  A
O715        C722   1.261       .  A
C716        O723   1.257       .  A
C716        O717   1.262       .  A
C716        C854   1.464       .  S
C718        O720   1.263       .  A
C718        O724   1.258       .  A
C725       C1031   1.521       .  S
C725        C726   1.541       .  S
C725        C731   1.527       .  S
C725       C1929   1.533       .  S
C726        H733   1.086       .  S
C726        C727   1.367       .  D
C727        C728   1.560       .  S
C727        C742   1.503       .  S
C728        C732   1.556       .  S
C728       C1930   1.559       .  S
C728        H734   1.108       .  S
C729       C1925   1.533   1_455  S
C729        H735   1.084       .  S
C729        C730   1.377       .  D
C730       C1928   1.559   1_455  S
C731        H736   1.087       .  S
C731        C732   1.362       .  D
C737        C738   1.519       .  S
C737        C743   1.537       .  S
C737        C741   1.534       .  S
C738        H745   1.088       .  S
C738        C739   1.358       .  D
C739        C740   1.565       .  S
C740        C744   1.549       .  S
C740        C742   1.564       .  S
C740        H746   1.107       .  S
C741        H747   1.086       .  S
C741        C742   1.369       .  D
C743        H748   1.087       .  S
C743        C744   1.379       .  D
C749        C800   1.478       .  S
C749        C750   1.541       .  S
C749        C755   1.511       .  S
C749        C753   1.538       .  S
C750        C751   1.369       .  D
C751        C775   1.461       .  S
C751        C752   1.520       .  S
C752        C756   1.543       .  S
C752        C754   1.539       .  S
C752        H758   1.111       .  S
C753       H1959   1.087   1_455  S
C753        C754   1.364       .  D
C754        C838   1.465       .  S
C755        H760   1.087       .  S
C755        C756   1.350       .  D
C756        C898   1.447       .  S
H759       C1953   1.087       .  S
In761       O763   2.202       .  S
In761       O764   2.226       .  S
In761       O772   2.248       .  S
In761       O766   2.237       .  S
In761       O768   2.214       .  S
In761       O769   2.238       .  S
In761       O770   2.212       .  S
In761       O773   2.221       .  S
C762        C787   1.481       .  S
O763        C771   1.261       .  A
O764        C771   1.265       .  A
C765        O772   1.264       .  A
C765        O766   1.258       .  A
C767        O769   1.261       .  A
C767        O773   1.259       .  A
C767        C830   1.464       .  S
C771        C784   1.449       .  S
In774       O777   2.211       .  S
In774       O785   2.232   1_554  S
In774       O782   2.210   1_554  S
In774       O786   2.213       .  S
C775        O781   1.268       .  A
C775        O783   1.258       .  A
O776        C784   1.261       .  A
C778        O785   1.261   1_554  A
C780        O782   1.264       .  A
C780        O786   1.262   1_556  A
C780        C865   1.448       .  S
C787        C793   1.512       .  S
C787        C791   1.540       .  S
C788        H795   1.086       .  S
C789        C813   1.460       .  S
C789        C790   1.519       .  S
C790        C794   1.544       .  S
C790        C792   1.539       .  S
C790        H796   1.111       .  S
C791        H797   1.087       .  S
C791        C792   1.364       .  D
C792        C876   1.469       .  S
C793        H798   1.087       .  S
C793        C794   1.351       .  D
C794        C860   1.450       .  S
In799       O802   2.223       .  S
In799       O810   2.253       .  S
In799      O2004   2.247   1_556  S
In799      O1406   2.207   1_556  S
In799       O807   2.247       .  S
In799      O2011   2.225       .  S
C800        O806   1.263       .  A
C800       O2008   1.258   1_455  A
O801        C809   1.261       .  A
C803       O2010   1.264       .  A
C803        O804   1.259   1_556  A
C803       C1066   1.508       .  S
O804      In1999   2.247   1_454  S
C805       O2007   1.261   1_455  A
C805        O811   1.259       .  A
C805        C868   1.468       .  S
O806      In1399   2.207   1_455  S
O807       C2005   1.261       .  A
O808       C2000   1.258       .  A
C809        C822   1.449       .  S
O810       C2003   1.264       .  A
O811      In1999   2.225   1_455  S
In812       O814   2.221       .  S
In812       O815   2.212       .  S
In812       O823   2.226       .  S
In812       O817   2.239       .  S
In812       O820   2.211       .  S
In812       O821   2.207       .  S
In812       O824   2.217       .  S
C813        O819   1.269       .  A
O814        C822   1.261       .  A
O815        C822   1.262       .  A
C816        O823   1.262       .  A
C816        O817   1.267       .  A
C816       C1168   1.461       .  S
C818        O820   1.263       .  A
C818        O824   1.263       .  A
C818        C827   1.450       .  S
C825        C885   1.479       .  S
C825        C826   1.513       .  S
C825        C831   1.541       .  S
C825        C829   1.537       .  S
C826        H833   1.087       .  S
C826        C827   1.351       .  D
C827        C828   1.543       .  S
C828        C832   1.517       .  S
C828        C830   1.538       .  S
C828        H834   1.111       .  S
C829        H835   1.087       .  S
C829        C830   1.364       .  D
C831        H836   1.087       .  S
C831        C832   1.369       .  D
C832        C851   1.459       .  S
In837       O839   2.215       .  S
In837      O2040   2.211       .  S
In837       O848   2.194       .  S
In837       O842   2.231       .  S
In837       O844   2.238       .  S
In837      O2045   2.240       .  S
In837      O2046   2.224       .  S
In837       O849   2.249       .  S
C838       O2044   1.261   1_455  A
C838        O846   1.259       .  A
O839       C2047   1.258       .  A
O840      In2037   2.211   1_455  S
O840        C847   1.263       .  A
C841        O848   1.260       .  A
C841        O842   1.265       .  A
C841        C856   1.448       .  S
C843        O845   1.258   1_455  A
C843       O2049   1.264       .  A
O844       C2038   1.261       .  A
O845      In2037   2.240       .  S
O846      In2037   2.224   1_455  S
C847       O2039   1.258   1_455  A
C847        C863   1.480       .  S
O849       C2043   1.264       .  A
In850       O852   2.215       .  S
In850       O853   2.213       .  S
In850       O861   2.234       .  S
In850       O855   2.241       .  S
In850       O857   2.224       .  S
In850       O858   2.203       .  S
In850       O859   2.209       .  S
In850       O862   2.231       .  S
C851        O857   1.269       .  A
C851        O859   1.257       .  A
O852        C860   1.262       .  A
O853        C860   1.263       .  A
C854        O861   1.261       .  A
C854        O855   1.267       .  A
C856        O858   1.261       .  A
C856        O862   1.262       .  A
C863        C864   1.512       .  S
C863        C869   1.540       .  S
C863        C867   1.540       .  S
C864        H871   1.087       .  S
C864        C865   1.351       .  D
C865        C866   1.543       .  S
C866        C870   1.518       .  S
C866        C868   1.538       .  S
C866        H872   1.111       .  S
C867       H2073   1.087   1_455  S
C867        C868   1.365       .  D
C869        H874   1.087       .  S
C869        C870   1.368       .  D
C870        C889   1.459       .  S
H873       C2067   1.087       .  S
In875       O877   2.214       .  S
In875       O878   2.208       .  S
In875       O886   2.204       .  S
In875       O880   2.227       .  S
In875       O882   2.248       .  S
In875       O883   2.252       .  S
In875       O884   2.228       .  S
In875       O887   2.254       .  S
C876        O882   1.261       .  A
C876        O884   1.259       .  A
O877        C885   1.258       .  A
O878        C885   1.263       .  A
C879        O886   1.261       .  A
C879        O880   1.265       .  A
C879        C894   1.449       .  S
C881        O883   1.259       .  A
C881        O887   1.264       .  A
C881       C1140   1.511       .  S
In888       O890   2.216       .  S
In888       O891   2.207       .  S
In888       O899   2.227       .  S
In888       O893   2.242       .  S
In888       O895   2.227       .  S
In888       O896   2.207       .  S
In888       O897   2.208       .  S
In888       O900   2.223       .  S
C889        O895   1.269       .  A
C889        O897   1.257       .  A
O890        C898   1.262       .  A
O891        C898   1.262       .  A
C892        O899   1.262       .  A
C892        O893   1.267       .  A
C892       C1094   1.462       .  S
C894        O896   1.262       .  A
C894        O900   1.262       .  A
C901       C1046   1.481       .  S
C901        C902   1.507       .  S
C901        C907   1.547       .  S
C901        C905   1.532       .  S
C902        H909   1.087       .  S
C902        C903   1.352       .  D
C903        C952   1.454       .  S
C903        C904   1.546       .  S
C904        C908   1.529       .  S
C904        C906   1.533       .  S
C904        H910   1.111       .  S
C905        H911   1.086       .  S
C905        C906   1.354       .  D
C906        C927   1.457       .  S
C907        H912   1.085       .  S
C907        C908   1.380       .  D
C908        C995   1.471       .  S
In913      O2115   2.239   1_455  S
In913       O916   2.234       .  S
In913       O924   2.267   1_455  S
In913      O2118   2.256   1_455  S
In913      O2120   2.232   1_455  S
In913       O921   2.227       .  S
In913       O922   2.204   1_455  S
In913       O925   2.212       .  S
C914       O1522   1.264       .  A
C914        C939   1.488       .  S
O915      In2113   2.239       .  S
O915        C923   1.270       .  A
O916       C2123   1.258   1_455  A
C917        O924   1.266       .  A
C917       O2118   1.261       .  A
C917       C1177   1.518       .  S
O918      In2113   2.256       .  S
O918       C2117   1.261       .  A
C919        O921   1.262       .  A
C919        O925   1.260       .  A
C919        C932   1.449       .  S
O920      In2113   2.232       .  S
O922       C1514   1.264       .  A
C923       O2116   1.258       .  A
C923        C979   1.473       .  S
In926       O928   2.175   1_554  S
In926       O929   2.215   1_554  S
In926       O937   2.198       .  S
In926       O934   2.211       .  S
C927        O933   1.258       .  A
C927        O935   1.258       .  A
O928        C936   1.258       .  A
O929        C936   1.262       .  A
C930        O937   1.257       .  A
C930       C1057   1.447       .  S
C932        O938   1.263       .  A
C936       C1022   1.440       .  S
C939        C940   1.505       .  S
C939        C943   1.545       .  S
C940        H947   1.088       .  S
C940        C941   1.352       .  D
C941       C1008   1.441       .  S
C941        C942   1.533       .  S
C942        C946   1.522       .  S
C942        C944   1.536       .  S
C942        H948   1.112       .  S
C943       H2149   1.087       .  S
C943        C944   1.366       .  D
C944       C1033   1.476       .  S
C945        H950   1.087       .  S
C946        C965   1.457       .  S
H949       C2143   1.087       .  S
In951       O953   2.236       .  S
In951       O954   2.251       .  S
In951       O962   2.268       .  S
In951       O956   2.261   1_556  S
In951       O959   2.226       .  S
C952        O958   1.264       .  A
C952        O960   1.256       .  A
O953        C961   1.262       .  A
O954        C961   1.261       .  A
C955        O962   1.267       .  A
C955        O956   1.258   1_556  A
C957        O963   1.257       .  A
C957        C970   1.445       .  S
C961       C1020   1.475       .  S
In964       O966   2.229       .  S
In964       O967   2.177       .  S
In964       O975   2.210       .  S
In964       O969   2.237       .  S
In964       O972   2.209       .  S
In964       O973   2.210       .  S
C965        O971   1.271       .  A
O966        C974   1.263       .  A
O967        C974   1.269       .  A
C968        O975   1.259       .  A
C968        O969   1.266       .  A
C970        O972   1.263       .  A
C974        C977   1.481       .  S
C977        C978   1.546       .  S
C977        C983   1.508       .  S
C977        C981   1.531       .  S
C978        H985   1.085       .  S
C978        C979   1.380       .  D
C979        C980   1.529       .  S
C980        C984   1.547       .  S
C980        C982   1.534       .  S
C980        H986   1.111       .  S
C981        H987   1.086       .  S
C981        C982   1.354       .  D
C982       C1003   1.456       .  S
C983        H988   1.087       .  S
C983        C984   1.352       .  D
C984       C1028   1.455       .  S
In989       O991   2.209       .  S
In989       O992   2.227       .  S
In989      O1000   2.269       .  S
In989       O994   2.257       .  S
In989       O996   2.228       .  S
In989       O997   2.236       .  S
In989       O998   2.207       .  S
In989      O1001   2.236       .  S
C990        O996   1.261       .  A
C990        O998   1.264       .  A
C990       C1015   1.488       .  S
O991        C999   1.260       .  A
O992        C999   1.262       .  A
C993       O1000   1.266       .  A
C993        O994   1.261       .  A
C993       C1103   1.519       .  S
C995        O997   1.258       .  A
C995       O1001   1.270       .  A
C999       C1012   1.448       .  S
In1002     O1004   2.220       .  S
In1002     O1005   2.207       .  S
In1002     O1013   2.196       .  S
In1002     O1007   2.239       .  S
In1002     O1009   2.231       .  S
In1002     O1010   2.218       .  S
In1002     O1011   2.209       .  S
In1002     O1014   2.175       .  S
C1003      O1009   1.258       .  A
C1003      O1011   1.258       .  A
O1004      C1012   1.263       .  A
O1005      C1012   1.262       .  A
C1006      O1013   1.256       .  A
C1006      O1007   1.266       .  A
C1006      C1131   1.447       .  S
C1008      O1010   1.261       .  A
C1008      O1014   1.258       .  A
C1015      C1016   1.544       .  S
C1015      C1021   1.506       .  S
C1015      C1019   1.544       .  S
C1016      H1023   1.087       .  S
C1016      C1017   1.375       .  D
C1017      C1041   1.456       .  S
C1017      C1018   1.519       .  S
C1018      C1022   1.532       .  S
C1018      C1020   1.535       .  S
C1018      H1024   1.112       .  S
C1019      H1025   1.087       .  S
C1019      C1020   1.366       .  D
C1021      H1026   1.088       .  S
C1021      C1022   1.353       .  D
In1027     O2229   2.204       .  S
In1027     O2230   2.231       .  S
In1027     O2238   2.272       .  S
In1027     O1032   2.264       .  S
In1027     O1034   2.215       .  S
In1027     O2235   2.255       .  S
In1027     O1036   2.225       .  S
In1027     O1039   2.239       .  S
C1028      O1034   1.264       .  A
C1028      O1036   1.256       .  A
O1029     In2227   2.204   1_455  S
O1029      C1037   1.258       .  A
O1030     In2227   2.231   1_455  S
O1030      C1037   1.263       .  A
C1031      O2238   1.267       .  A
C1031      O1032   1.258       .  A
C1033      O2235   1.261       .  A
C1033      O1039   1.261       .  A
O1035     In2227   2.255       .  S
O1035      C2233   1.261       .  A
C1037      C1050   1.446       .  S
O1038     In2227   2.272       .  S
O1038      C2231   1.267       .  A
In1040     O1042   2.220       .  S
In1040     O1043   2.204       .  S
In1040     O1051   2.209       .  S
In1040     O1045   2.235       .  S
In1040     O1047   2.201       .  S
In1040     O1048   2.175       .  S
In1040     O1049   2.210       .  S
In1040     O1052   2.230       .  S
C1041      O1047   1.271       .  A
C1041      O1049   1.261       .  A
O1042      C1050   1.261       .  A
O1043      C1050   1.263       .  A
C1044      O1051   1.259       .  A
C1044      O1045   1.267       .  A
C1046      O1048   1.269       .  A
C1046      O1052   1.263       .  A
In1053     O1058   2.228       .  S
In1053     O1060   2.260       .  S
In1053     O1061   2.259       .  S
In1053     O1062   2.266   1_545  S
In1053     O1065   2.307       .  S
C1054      O1060   1.256       .  A
C1054      O1062   1.264   1_545  A
C1054      C1078   1.510   1_545  S
O1055      C1063   1.263   1_565  A
O1056      C1063   1.259       .  A
C1057      O1064   1.256       .  A
C1059      O1061   1.262       .  A
C1059      O1065   1.260       .  A
C1059      C1105   1.496       .  S
C1063      C1117   1.498       .  S
C1066      C1072   1.527       .  S
C1066      C2270   1.527   1_455  S
C1067      H1074   1.086       .  S
C1067      C1068   1.363       .  D
C1068      C1083   1.490       .  S
C1069      C1073   1.560       .  S
C1069      C2271   1.560   1_455  S
C1069      H1075   1.108       .  S
C1070      C2266   1.527       .  S
C1070      H1076   1.079       .  S
C1070      C1071   1.373       .  D
C1071      C2269   1.560       .  S
C1071      C1191   1.506       .  S
C1072      H1077   1.086       .  S
C1072      C1073   1.363       .  D
C1073      C1096   1.495       .  S
C1078      C1079   1.521       .  S
C1078      C1084   1.541   1_565  S
C1078      C1082   1.527       .  S
C1079      H1086   1.088       .  S
C1079      C1080   1.357       .  D
C1080      C1100   1.493       .  S
C1080      C1081   1.562       .  S
C1081      C1085   1.550   1_565  S
C1081      C1083   1.561       .  S
C1081      H1087   1.107       .  S
C1082      C1083   1.364       .  D
C1084      H1089   1.082       .  S
C1084      C1085   1.381       .  D
C1085      C1179   1.509       .  S
In1090     O1092   2.303       .  S
In1090     O1093   2.275       .  S
In1090     O1101   2.251       .  S
In1090     O1095   2.250       .  S
In1090     O1097   2.265       .  S
In1090     O1098   2.266       .  S
In1090     O1099   2.277       .  S
In1090     O1102   2.306       .  S
C1091      O1097   1.257       .  A
C1091      O1099   1.262       .  A
C1091      C1115   1.515       .  S
O1092      C1100   1.257       .  A
O1093      C1100   1.262       .  A
C1094      O1101   1.257       .  A
C1094      O1095   1.262       .  A
C1096      O1098   1.264       .  A
C1096      O1102   1.260       .  A
C1103      C1104   1.530       .  S
C1103      C1109   1.531       .  S
C1103      C1107   1.538       .  S
C1104      H1111   1.087       .  S
C1104      C1105   1.366       .  D
C1105      C1106   1.558       .  S
C1106      C1110   1.560       .  S
C1106      C1108   1.560       .  S
C1106      H1112   1.108   1_545  S
C1107      H1113   1.086       .  S
C1107      C1108   1.365       .  D
C1108      C1120   1.499       .  S
C1109      H1114   1.083       .  S
C1109      C1110   1.376       .  D
C1110      C1154   1.510       .  S
C1115      C1116   1.520       .  S
C1115      C1121   1.538       .  S
C1115      C1119   1.531   1_565  S
C1116      H1123   1.088       .  S
C1116      C1117   1.358   1_565  D
C1117      C1118   1.566       .  S
C1118      C1122   1.550   1_545  S
C1118      C1120   1.565       .  S
C1118      H1124   1.107       .  S
C1119      H1125   1.087       .  S
C1119      C1120   1.367       .  D
C1121      H1126   1.081       .  S
C1121      C1122   1.380       .  D
C1122      C1142   1.508       .  S
In1127     O1129   2.306       .  S
In1127     O1130   2.260       .  S
In1127     O1138   2.237       .  S
In1127     O1132   2.223       .  S
In1127     O1134   2.265       .  S
In1127     O1135   2.273   1_545  S
In1127     O1136   2.269   1_545  S
In1127     O1139   2.309       .  S
C1128      O1134   1.256       .  A
C1128      O1136   1.264   1_545  A
C1128      C1152   1.513   1_545  S
O1129      C1137   1.260       .  A
O1130      C1137   1.262       .  A
C1131      O1138   1.257       .  A
C1131      O1132   1.262       .  A
C1133      O1135   1.263   1_545  A
C1133      O1139   1.258       .  A
C1133      C1196   1.496       .  S
C1137      C1184   1.497       .  S
C1140      C1141   1.527       .  S
C1140      C1146   1.528       .  S
C1140      C1144   1.536       .  S
C1141      H1148   1.082       .  S
C1141      C1142   1.374       .  D
C1142      C1143   1.560       .  S
C1143      C1147   1.560       .  S
C1143      C1145   1.559       .  S
C1143      H1149   1.108       .  S
C1144      H1150   1.086       .  S
C1144      C1145   1.364       .  D
C1145      C1157   1.494       .  S
C1146      H1151   1.086       .  S
C1146      C1147   1.363       .  D
C1147      C1174   1.496       .  S
C1152      C1153   1.541   1_565  S
C1152      C1158   1.521       .  S
C1152      C1156   1.528       .  S
C1153      H1160   1.083       .  S
C1153      C1154   1.381       .  D
C1154      C1155   1.551   1_545  S
C1155      C1159   1.564       .  S
C1155      C1157   1.562       .  S
C1155      H1161   1.107       .  S
C1156      H1162   1.087       .  S
C1156      C1157   1.365       .  D
C1158      H1163   1.088       .  S
C1158      C1159   1.358       .  D
C1159      C1170   1.497       .  S
In1164     O1175   2.248       .  S
In1164     O1169   2.249       .  S
In1164     O1171   2.266       .  S
In1164     O1172   2.270       .  S
In1164     O1173   2.271       .  S
In1164     O1176   2.314       .  S
C1165      O1171   1.257       .  A
C1165      O1173   1.263       .  A
O1166      C1174   1.260       .  A
O1167      C1174   1.263       .  A
C1168      O1175   1.257       .  A
C1168      O1169   1.262       .  A
C1170      O1172   1.262       .  A
C1170      O1176   1.258       .  A
C1177      C1178   1.531   1_655  S
C1177      C2383   1.530       .  S
C1177      C2381   1.536       .  S
C1178      H1185   1.083       .  S
C1178      C1179   1.376       .  D
C1179      C2380   1.560   1_455  S
C1180      C2379   1.560       .  S
C1180      C1184   1.558       .  S
C1180      C1182   1.561       .  S
C1180      H1186   1.107   1_545  S
C1181      C2377   1.536       .  S
C1181      H1187   1.087       .  S
C1181      C1182   1.364       .  D
C1182      C1194   1.499       .  S
C1183      C2377   1.530       .  S
C1183      H1188   1.087       .  S
C1183      C1184   1.366       .  D
C1189      C1190   1.539       .  S
C1189      C1195   1.521       .  S
C1190      H1197   1.079       .  S
C1190      C1191   1.382       .  D
C1191      C1192   1.548   1_565  S
C1192      C1196   1.564       .  S
C1192      H1198   1.107       .  S
C1193      H1199   1.087       .  S
C1193      C1194   1.366       .  D
C1195      H1200   1.088       .  S
C1195      C1196   1.357   1_565  D
In1201     O1203   2.301       .  S
In1201     O1204   2.259       .  S
In1201     O1212   2.241       .  S
In1201     O1206   2.238       .  S
In1201     O1208   2.254       .  S
In1201     O1209   2.262       .  S
In1201     O1210   2.265       .  S
In1201     O1213   2.309       .  S
C1202      O1208   1.256       .  A
C1202      O1210   1.264       .  A
C1202      C1226   1.508       .  S
O1203      C1211   1.259       .  A
O1204      C1211   1.263       .  A
C1205      O1212   1.257       .  A
C1205      O1206   1.262       .  A
C1205      C1644   1.453       .  S
C1207      O1209   1.263       .  A
C1207      O1213   1.259       .  A
C1207      C1257   1.495       .  S
C1211      C1245   1.491       .  S
C1214      C1443   1.504       .  S
C1214      C1220   1.525       .  S
C1214      C1218   1.534       .  S
C1215      H1222   1.088       .  S
C1215      C1216   1.372       .  D
C1216      C1344   1.504       .  S
C1217      C1221   1.559       .  S
C1217      C1219   1.560       .  S
C1217      H1223   1.108       .  S
C1218      H1224   1.086       .  S
C1218      C1219   1.363       .  D
C1219      C1231   1.492       .  S
C1220      H1225   1.087       .  S
C1220      C1221   1.361       .  D
C1221      C1272   1.490       .  S
C1226      C1227   1.541       .  S
C1226      C1232   1.518       .  S
C1226      C1230   1.527       .  S
C1227      H1234   1.084       .  S
C1227      C1228   1.379       .  D
C1228      C1229   1.551       .  S
C1228      C1330   1.508       .  S
C1229      C1233   1.565       .  S
C1229      C1231   1.563       .  S
C1229      H1235   1.107       .  S
C1230      H1236   1.087       .  S
C1230      C1231   1.364       .  D
C1232      H1237   1.088       .  S
C1232      C1233   1.357       .  D
C1233      C1268   1.496       .  S
C1238      C1555   1.519       .  S
C1238      C1239   1.532       .  S
C1238      C1244   1.527       .  S
C1238      C1842   1.540       .  S
C1239      H1246   1.084       .  S
C1239      C1240   1.376       .  D
C1240      C1241   1.560       .  S
C1240      C1305   1.510       .  S
C1241      C1245   1.557       .  S
C1241      C1243   1.561       .  S
C1241      H1247   1.108       .  S
C1242      C1838   1.540   1_554  S
C1242      H1248   1.086       .  S
C1242      C1843   1.367       .  D
C1243      C1842   1.367       .  D
C1243      C1855   1.503       .  S
C1244      H1249   1.087       .  S
C1244      C1245   1.362       .  D
C1250      C1263   1.517       .  S
C1250      C1251   1.537       .  S
C1250      C1256   1.520       .  S
C1250      C1254   1.534       .  S
C1251      H1258   1.083       .  S
C1251      C1252   1.380       .  D
C1252      C1253   1.549       .  S
C1252      C1293   1.504       .  S
C1253      C1257   1.564       .  S
C1253      C1255   1.563       .  S
C1253      H1259   1.107       .  S
C1254      H1860   1.086   1_554  S
C1254      C1255   1.369       .  D
C1255      C1843   1.503       .  S
C1256      H1261   1.088       .  S
C1256      C1257   1.358       .  D
H1260      C1854   1.086       .  S
In1262     O1264   2.300       .  S
In1262     O1265   2.263       .  S
In1262     O1873   2.248       .  S
In1262     O1267   2.256   1_554  S
In1262     O1269   2.269       .  S
In1262     O1870   2.253   1_554  S
In1262     O1271   2.268       .  S
In1262     O1874   2.322   1_554  S
C1263      O1269   1.260       .  A
C1263      O1271   1.263       .  A
O1264      C1272   1.258       .  A
O1265      C1272   1.263       .  A
C1266      O1273   1.256       .  A
C1266      O1867   1.261       .  A
C1266      C1378   1.462       .  S
O1267      C1866   1.261   1_556  A
C1268      O1270   1.261       .  A
C1268      O1274   1.259       .  A
O1270     In1862   2.252       .  S
O1273     In1862   2.248       .  S
O1274     In1862   2.322       .  S
In1275     O1277   2.314       .  S
In1275     O1278   2.257       .  S
In1275     O1286   2.243   1_554  S
In1275     O1280   2.237       .  S
In1275     O1282   2.258       .  S
In1275     O1883   2.258   1_554  S
In1275     O1284   2.264   1_554  S
In1275     O1887   2.302   1_554  S
C1276      O1282   1.256   1_556  A
C1276      O1284   1.265       .  A
C1276      C1300   1.510       .  S
O1277      C1285   1.259       .  A
O1278      C1285   1.263       .  A
C1279      O1286   1.257   1_554  A
C1279      O1280   1.261       .  A
C1279      C1568   1.453       .  S
C1281      O1283   1.262       .  A
C1281      O1287   1.259       .  A
C1281      C1332   1.491       .  S
O1283     In1875   2.258       .  S
C1285      C1339   1.496       .  S
O1287     In1875   2.302       .  S
C1288      C1365   1.503       .  S
C1288      C1289   1.534       .  S
C1288      C1294   1.525       .  S
C1288      C1292   1.525       .  S
C1289      H1296   1.087       .  S
C1289      C1290   1.362       .  D
C1290      C1291   1.560       .  S
C1290      C1302   1.492       .  S
C1291      C1295   1.559       .  S
C1291      C1293   1.559       .  S
C1291      H1297   1.108       .  S
C1292      H1298   1.084       .  S
C1292      C1293   1.372       .  D
C1294      H1299   1.087       .  S
C1294      C1295   1.362       .  D
C1295      C1318   1.491       .  S
C1300      C1301   1.527   1_556  S
C1300      C1906   1.517       .  S
C1300      C1904   1.541       .  S
C1301      H1308   1.087       .  S
C1301      C1302   1.364       .  D
C1302      C1903   1.563   1_554  S
C1303      C1902   1.563       .  S
C1303      C1307   1.566       .  S
C1303      C1305   1.551       .  S
C1303      H1309   1.107       .  S
C1304      C1900   1.541       .  S
C1304      H1310   1.083       .  S
C1304      C1305   1.381       .  D
C1306      C1900   1.517       .  S
C1306      H1311   1.089       .  S
C1306      C1307   1.357       .  D
C1307      C1322   1.497       .  S
In1312     O1314   2.325       .  S
In1312     O1315   2.252       .  S
In1312     O1323   2.249       .  S
In1312     O1317   2.259       .  S
In1312     O1319   2.267       .  S
In1312     O1320   2.261       .  S
In1312     O1321   2.269       .  S
In1312     O1324   2.302       .  S
C1313      O1319   1.260       .  A
C1313      O1321   1.264       .  A
C1313      C1337   1.517       .  S
O1314      C1322   1.259       .  A
O1315      C1322   1.261       .  A
C1316      O1323   1.257       .  A
C1316      O1317   1.262       .  A
C1316      C1454   1.464       .  S
C1318      O1320   1.263       .  A
C1318      O1324   1.258       .  A
C1325      C1631   1.521       .  S
C1325      C1326   1.541       .  S
C1325      C1331   1.527       .  S
C1326      H1333   1.086       .  S
C1326      C1327   1.367       .  D
C1327      C1328   1.560       .  S
C1327      C1342   1.503       .  S
C1328      C1332   1.556       .  S
C1328      H1334   1.108       .  S
C1329      H1335   1.084       .  S
C1329      C1330   1.377       .  D
C1331      H1336   1.087       .  S
C1331      C1332   1.362       .  D
C1337      C1338   1.519       .  S
C1337      C1343   1.537       .  S
C1337      C1341   1.534       .  S
C1338      H1345   1.088       .  S
C1338      C1339   1.358       .  D
C1339      C1340   1.565       .  S
C1340      C1344   1.549       .  S
C1340      C1342   1.564       .  S
C1340      H1346   1.108       .  S
C1341      H1347   1.086       .  S
C1341      C1342   1.369       .  D
C1343      H1348   1.087       .  S
C1343      C1344   1.379       .  D
C1349      C1400   1.478       .  S
C1349      C1350   1.541       .  S
C1349      C1355   1.511       .  S
C1349      C1353   1.538       .  S
C1350      H1957   1.086       .  S
C1350      C1351   1.369       .  D
C1351      C1375   1.461       .  S
C1351      C1352   1.520       .  S
C1352      C1356   1.543       .  S
C1352      C1354   1.538       .  S
C1352      H1358   1.111       .  S
C1353      C1354   1.364       .  D
C1354      C1438   1.465       .  S
C1355      H1360   1.087       .  S
C1355      C1356   1.350       .  D
C1356      C1498   1.447       .  S
H1357      C1950   1.086       .  S
In1361     O1363   2.202       .  S
In1361     O1364   2.226       .  S
In1361     O1372   2.248       .  S
In1361     O1366   2.237       .  S
In1361     O1368   2.214       .  S
In1361     O1369   2.238       .  S
In1361     O1370   2.212   1_554  S
In1361     O1373   2.221       .  S
C1362      O1968   1.263       .  A
C1362      O1970   1.258       .  A
C1362      C1387   1.481       .  S
O1363      C1371   1.261       .  A
O1364      C1371   1.265       .  A
C1365      O1372   1.264       .  A
C1365      O1366   1.258       .  A
C1367      O1369   1.261       .  A
C1367      O1373   1.259       .  A
C1367      C1430   1.464       .  S
O1368      C1962   1.263   1_554  A
O1370      C1962   1.258       .  A
C1371      C1384   1.449       .  S
In1374     O1976   2.225       .  S
In1374     O1377   2.211       .  S
In1374     O1385   2.232       .  S
In1374     O1979   2.237       .  S
In1374     O1981   2.224       .  S
In1374     O1382   2.210       .  S
In1374     O1983   2.213       .  S
In1374     O1386   2.213       .  S
C1375      O1381   1.268       .  A
C1375      O1383   1.258       .  A
O1376     In1974   2.225       .  S
O1376      C1384   1.261       .  A
O1377      C1984   1.262       .  A
C1378      O1385   1.261       .  A
C1378      O1979   1.266       .  A
O1379     In1974   2.237       .  S
O1379      C1978   1.266       .  A
C1380      O1382   1.264       .  A
C1380      O1386   1.262       .  A
C1380      C1465   1.448       .  S
O1381     In1974   2.224       .  S
O1383     In1974   2.213       .  S
C1384      O1977   1.262       .  A
C1387      C1988   1.539       .  S
C1387      C1393   1.512       .  S
C1387      C1391   1.540       .  S
C1388      C1987   1.539       .  S
C1388      H1395   1.086   1_556  S
C1388      C1989   1.368       .  D
C1389      C1413   1.460       .  S
C1389      C1390   1.519       .  S
C1389      C1988   1.368       .  D
C1390      C1394   1.544       .  S
C1390      C1392   1.539       .  S
C1390      H1396   1.111       .  S
C1391      H1397   1.087       .  S
C1391      C1392   1.364       .  D
C1392      C1476   1.469       .  S
C1393      H1398   1.087       .  S
C1393      C1394   1.351       .  D
C1394      C1460   1.450       .  S
In1399     O2001   2.207       .  S
In1399     O1402   2.223       .  S
In1399     O1410   2.252   1_655  S
In1399     O1407   2.247       .  S
In1399     O2008   2.212       .  S
C1400      O1406   1.263       .  A
O1401     In1999   2.207   1_554  S
O1401      C1409   1.261   1_554  A
O1402      C2009   1.265       .  A
C1403      O1404   1.259       .  A
C1403      C1666   1.508       .  S
C1405      O1411   1.259       .  A
C1405      C1468   1.468       .  S
O1408     In1999   2.212   1_554  S
C1409      O2002   1.265       .  A
C1409      C1422   1.449       .  S
In1412     O1414   2.221   1_554  S
In1412     O1415   2.212       .  S
In1412     O1423   2.226       .  S
In1412     O1417   2.239   1_554  S
In1412     O2019   2.230   1_554  S
In1412     O1420   2.211       .  S
In1412     O1421   2.207   1_554  S
In1412     O1424   2.217       .  S
C1413      O1419   1.269       .  A
C1413      O2021   1.257       .  A
O1414      C1422   1.261       .  A
O1415      C1422   1.262   1_554  A
C1416      O1423   1.262       .  A
C1416      O1417   1.267   1_554  A
C1416      C1768   1.461       .  S
C1418      O1420   1.263       .  A
C1418      O1424   1.263       .  A
C1418      C1427   1.450       .  S
O1419     In2012   2.230       .  S
O1421      C2013   1.257       .  A
C1425      C1485   1.479       .  S
C1425      C1426   1.513       .  S
C1425      C1431   1.541       .  S
C1425      C1429   1.537       .  S
C1426      H1433   1.087       .  S
C1426      C1427   1.351       .  D
C1427      C1428   1.543       .  S
C1428      C1432   1.517       .  S
C1428      C1430   1.538       .  S
C1428      H1434   1.111       .  S
C1429      H1435   1.087       .  S
C1429      C1430   1.363       .  D
C1431      H1436   1.087       .  S
C1431      C1432   1.369       .  D
C1432      C1451   1.459       .  S
In1437     O1439   2.215       .  S
In1437     O1448   2.194       .  S
In1437     O1442   2.231       .  S
In1437     O1444   2.238       .  S
In1437     O1449   2.249   1_655  S
C1438      O1446   1.259       .  A
O1440      C1447   1.263       .  A
C1441      O1448   1.260       .  A
C1441      O1442   1.265       .  A
C1441      C1456   1.448       .  S
C1443      O1445   1.258       .  A
C1447      C1463   1.480       .  S
In1450     O1452   2.215       .  S
In1450     O1453   2.213       .  S
In1450     O1461   2.234       .  S
In1450     O1455   2.241       .  S
In1450     O1457   2.224       .  S
In1450     O1458   2.203       .  S
In1450     O1459   2.209       .  S
In1450     O1462   2.231       .  S
C1451      O1457   1.269       .  A
C1451      O1459   1.257       .  A
O1452      C1460   1.262       .  A
O1453      C1460   1.263       .  A
C1454      O1461   1.261       .  A
C1454      O1455   1.267       .  A
C1456      O1458   1.261       .  A
C1456      O1462   1.262       .  A
C1463      C1464   1.512       .  S
C1463      C1469   1.540       .  S
C1463      C1467   1.540       .  S
C1464      H1471   1.087       .  S
C1464      C1465   1.351       .  D
C1465      C1466   1.543       .  S
C1466      C1470   1.518       .  S
C1466      C1468   1.538       .  S
C1466      H1472   1.111       .  S
C1467      C1468   1.365       .  D
C1469      H1474   1.087       .  S
C1469      C1470   1.368       .  D
C1470      C1489   1.459       .  S
In1475     O1477   2.214       .  S
In1475     O1478   2.208       .  S
In1475     O1486   2.204       .  S
In1475     O1480   2.227       .  S
In1475     O1482   2.248       .  S
In1475     O1483   2.252       .  S
In1475     O1484   2.228       .  S
In1475     O1487   2.254       .  S
C1476      O1482   1.261       .  A
C1476      O1484   1.259       .  A
O1477      C1485   1.258       .  A
O1478      C1485   1.263       .  A
C1479      O1486   1.261       .  A
C1479      O1480   1.265       .  A
C1479      C1494   1.449       .  S
C1481      O1483   1.259       .  A
C1481      O1487   1.264       .  A
C1481      C1740   1.511       .  S
In1488     O1490   2.216       .  S
In1488     O1491   2.207       .  S
In1488     O1499   2.227       .  S
In1488     O1493   2.242       .  S
In1488     O1495   2.227       .  S
In1488     O1496   2.207       .  S
In1488     O1497   2.208       .  S
In1488     O1500   2.223       .  S
C1489      O1495   1.269       .  A
C1489      O1497   1.257       .  A
O1490      C1498   1.262       .  A
O1491      C1498   1.262       .  A
C1492      O1499   1.262       .  A
C1492      O1493   1.267       .  A
C1492      C1694   1.462       .  S
C1494      O1496   1.262       .  A
C1494      O1500   1.262       .  A
C1501      C1646   1.481       .  S
C1501      C1502   1.507       .  S
C1501      C1507   1.547       .  S
C1501      C1505   1.532       .  S
C1502      H1509   1.087       .  S
C1502      C1503   1.352       .  D
C1503      C1552   1.454       .  S
C1503      C1504   1.546       .  S
C1504      C1508   1.529       .  S
C1504      C1506   1.533       .  S
C1504      H1510   1.111       .  S
C1505      H1511   1.086       .  S
C1505      C1506   1.354       .  D
C1506      C1527   1.457       .  S
C1507      H1512   1.085       .  S
C1507      C1508   1.380       .  D
C1508      C1595   1.471       .  S
In1513     O1516   2.234       .  S
In1513     O1524   2.267       .  S
In1513     O1521   2.227       .  S
In1513     O1522   2.204   1_554  S
In1513     O1525   2.212       .  S
C1514      O2120   1.262       .  A
C1514      C1539   1.488       .  S
O1515      C1523   1.270       .  A
C1517      O1524   1.266       .  A
C1517      C1777   1.518       .  S
C1519      O1521   1.262       .  A
C1519      O1525   1.260       .  A
C1519      C1532   1.449       .  S
O1520      C2114   1.262   1_554  A
C1523      C1579   1.473       .  S
In1526     O1528   2.175       .  S
In1526     O1529   2.215       .  S
In1526     O1537   2.198       .  S
In1526     O2131   2.234       .  S
In1526     O2133   2.231       .  S
In1526     O1534   2.211       .  S
In1526     O2135   2.214       .  S
In1526     O2138   2.220       .  S
C1527      O1533   1.258       .  A
C1527      O1535   1.258       .  A
O1528      C1536   1.258       .  A
O1529      C1536   1.262       .  A
C1530      O1537   1.257       .  A
C1530      O2131   1.267       .  A
C1530      C1657   1.447       .  S
O1531     In2126   2.234       .  S
O1531      C2130   1.267       .  A
C1532      O2134   1.262       .  A
C1532      O1538   1.263       .  A
O1533     In2126   2.231       .  S
O1534      C2132   1.262       .  A
O1535     In2126   2.214       .  S
C1536      C1622   1.440       .  S
O1538     In2126   2.220       .  S
C1539      C1540   1.505       .  S
C1539      C2145   1.543       .  S
C1539      C1543   1.545       .  S
C1540      H1547   1.088       .  S
C1540      C1541   1.352       .  D
C1541      C1608   1.441       .  S
C1541      C1542   1.533       .  S
C1542      C1546   1.522       .  S
C1542      C1544   1.536       .  S
C1542      H1548   1.112       .  S
C1543      C1544   1.366       .  D
C1544      C1633   1.476       .  S
C1545      C2139   1.543       .  S
C1545      H1550   1.087   1_556  S
C1545      C2146   1.375       .  D
C1546      C1565   1.457       .  S
C1546      C2145   1.375       .  D
In1551     O1553   2.236       .  S
In1551     O1554   2.251       .  S
In1551     O1562   2.268       .  S
In1551     O1556   2.261       .  S
In1551     O2158   2.212       .  S
In1551     O1559   2.226       .  S
In1551     O2160   2.223       .  S
In1551     O2163   2.210       .  S
C1552      O1558   1.264       .  A
C1552      O1560   1.256       .  A
O1553      C1561   1.262       .  A
O1554      C1561   1.261       .  A
C1555      O1562   1.267       .  A
C1555      O1556   1.258       .  A
C1557      O2159   1.262       .  A
C1557      O1563   1.257   1_556  A
C1557      C1570   1.445       .  S
O1558     In2151   2.212   1_554  S
O1559      C2157   1.262       .  A
O1560     In2151   2.222   1_554  S
C1561      C1620   1.475       .  S
O1563     In2151   2.210   1_554  S
In1564     O1566   2.229       .  S
In1564     O1567   2.177       .  S
In1564     O1575   2.210       .  S
In1564     O1569   2.237   1_554  S
In1564     O2171   2.203   1_554  S
In1564     O1572   2.209       .  S
In1564     O1573   2.210   1_554  S
In1564     O2176   2.214   1_554  S
C1565      O1571   1.271       .  A
C1565      O2173   1.261       .  A
O1566      C1574   1.263       .  A
O1567      C1574   1.269       .  A
C1568      O1575   1.259       .  A
C1568      O1569   1.266   1_554  A
C1570      O1572   1.263   1_556  A
C1570      O2176   1.261       .  A
O1571     In2164   2.203       .  S
O1573      C2165   1.261       .  A
C1574      C1577   1.481       .  S
O1576     In2164   2.214       .  S
O1576      C2170   1.261       .  A
C1577      C1578   1.546       .  S
C1577      C1583   1.508       .  S
C1577      C1581   1.531       .  S
C1578      H1585   1.085       .  S
C1578      C1579   1.380       .  D
C1579      C1580   1.529       .  S
C1580      C1584   1.547       .  S
C1580      C1582   1.534       .  S
C1580      H1586   1.111       .  S
C1581      H1587   1.086       .  S
C1581      C1582   1.354       .  D
C1582      C1603   1.456       .  S
C1583      H1588   1.087       .  S
C1583      C1584   1.352       .  D
C1584      C1628   1.455       .  S
In1589     O1591   2.209       .  S
In1589     O1592   2.227       .  S
In1589     O1600   2.269       .  S
In1589     O1594   2.257       .  S
In1589     O1596   2.229       .  S
In1589     O1597   2.236       .  S
In1589     O1598   2.207       .  S
In1589     O1601   2.236       .  S
C1590      O1596   1.261       .  A
C1590      O1598   1.264       .  A
C1590      C1615   1.488       .  S
O1591      C1599   1.260       .  A
O1592      C1599   1.262       .  A
C1593      O1600   1.266       .  A
C1593      O1594   1.261       .  A
C1593      C1703   1.519       .  S
C1595      O1597   1.258       .  A
C1595      O1601   1.270       .  A
C1599      C1612   1.448       .  S
In1602     O1604   2.220       .  S
In1602     O1605   2.207       .  S
In1602     O1613   2.196       .  S
In1602     O1607   2.239       .  S
In1602     O1609   2.231       .  S
In1602     O1610   2.218       .  S
In1602     O1611   2.209       .  S
In1602     O1614   2.175       .  S
C1603      O1609   1.258       .  A
C1603      O1611   1.258       .  A
O1604      C1612   1.263       .  A
O1605      C1612   1.262       .  A
C1606      O1613   1.256       .  A
C1606      O1607   1.266       .  A
C1606      C1731   1.447       .  S
C1608      O1610   1.261       .  A
C1608      O1614   1.258       .  A
C1615      C1616   1.544       .  S
C1615      C1621   1.506       .  S
C1615      C1619   1.544       .  S
C1616      H1623   1.087       .  S
C1616      C1617   1.375       .  D
C1617      C1641   1.456       .  S
C1617      C1618   1.519       .  S
C1618      C1622   1.532       .  S
C1618      C1620   1.535       .  S
C1618      H1624   1.112       .  S
C1619      H1625   1.087       .  S
C1619      C1620   1.366       .  D
C1621      H1626   1.088       .  S
C1621      C1622   1.353       .  D
In1627     O1632   2.265       .  S
In1627     O1634   2.215       .  S
In1627     O1636   2.226       .  S
In1627     O1639   2.239       .  S
C1628      O1634   1.264       .  A
C1628      O1636   1.256       .  A
O1629      C1637   1.258       .  A
O1630      C1637   1.263       .  A
C1631      O1632   1.258       .  A
C1633      O1639   1.261       .  A
C1637      C1650   1.446       .  S
In1640     O1642   2.220       .  S
In1640     O1643   2.204       .  S
In1640     O1651   2.209       .  S
In1640     O1645   2.235       .  S
In1640     O1647   2.201       .  S
In1640     O1648   2.175       .  S
In1640     O1649   2.210       .  S
In1640     O1652   2.230       .  S
C1641      O1647   1.271       .  A
C1641      O1649   1.261       .  A
O1642      C1650   1.261       .  A
O1643      C1650   1.263       .  A
C1644      O1651   1.259       .  A
C1644      O1645   1.267       .  A
C1646      O1648   1.269       .  A
C1646      O1652   1.263       .  A
In1653     O2255   2.267   1_544  S
In1653     O2256   2.315   1_554  S
In1653     O2264   2.235       .  S
In1653     O1658   2.228       .  S
In1653     O1660   2.260       .  S
In1653     O1661   2.259       .  S
In1653     O1662   2.266   1_545  S
In1653     O1665   2.307       .  S
C1654      O1660   1.256       .  A
C1654      O1662   1.264   1_545  A
C1654      C1678   1.510   1_545  S
O1655     In2253   2.267   1_565  S
O1655      C1663   1.263   1_565  A
O1656     In2253   2.315       .  S
O1656      C1663   1.259       .  A
C1657      O1664   1.256       .  A
C1657      O2258   1.263       .  A
O1658      C2257   1.263       .  A
C1659      O1661   1.262       .  A
C1659      O1665   1.260       .  A
C1659      C1705   1.496       .  S
C1663      C1717   1.498       .  S
O1664     In2253   2.235       .  S
C1666      C2267   1.535       .  S
C1666      C1672   1.527       .  S
C1667      C2266   1.535   1_554  S
C1667      H1674   1.086       .  S
C1667      C1668   1.363       .  D
C1668      C2269   1.558   1_554  S
C1668      C1683   1.490       .  S
C1669      C2268   1.558       .  S
C1669      C1673   1.560       .  S
C1669      H1675   1.108       .  S
C1670      H1676   1.079       .  S
C1670      C1671   1.373       .  D
C1671      C1791   1.506       .  S
C1672      H1677   1.086       .  S
C1672      C1673   1.363       .  D
C1673      C1696   1.495       .  S
C1678      C1679   1.521       .  S
C1678      C1684   1.541   1_565  S
C1678      C1682   1.527       .  S
C1679      H1686   1.088       .  S
C1679      C1680   1.357       .  D
C1680      C1700   1.493       .  S
C1680      C1681   1.562       .  S
C1681      C1685   1.550   1_565  S
C1681      C1683   1.561       .  S
C1681      H1687   1.107       .  S
C1682      H2288   1.087   1_554  S
C1682      C1683   1.364       .  D
C1684      H1689   1.082       .  S
C1684      C1685   1.381       .  D
C1685      C1779   1.509       .  S
H1688      C2282   1.087       .  S
In1690     O1692   2.303       .  S
In1690     O1693   2.275       .  S
In1690     O1701   2.251       .  S
In1690     O1695   2.250       .  S
In1690     O1697   2.265       .  S
In1690     O1698   2.266       .  S
In1690     O1699   2.277       .  S
In1690     O1702   2.306       .  S
C1691      O1697   1.257       .  A
C1691      O1699   1.262       .  A
C1691      C1715   1.515       .  S
O1692      C1700   1.257       .  A
O1693      C1700   1.262       .  A
C1694      O1701   1.257       .  A
C1694      O1695   1.262       .  A
C1696      O1698   1.264       .  A
C1696      O1702   1.260       .  A
C1703      C1704   1.530       .  S
C1703      C1709   1.531       .  S
C1703      C1707   1.538       .  S
C1704      H1711   1.087       .  S
C1704      C1705   1.366       .  D
C1705      C1706   1.558       .  S
C1706      C1710   1.560       .  S
C1706      C1708   1.560       .  S
C1706      H1712   1.108   1_545  S
C1707      H1713   1.087       .  S
C1707      C1708   1.365       .  D
C1708      C1720   1.499       .  S
C1709      H1714   1.083       .  S
C1709      C1710   1.376       .  D
C1710      C1754   1.510       .  S
C1715      C1716   1.520       .  S
C1715      C1721   1.538       .  S
C1715      C1719   1.531   1_565  S
C1716      H1723   1.088       .  S
C1716      C1717   1.358   1_565  D
C1717      C1718   1.566       .  S
C1718      C1722   1.550   1_545  S
C1718      C1720   1.565       .  S
C1718      H1724   1.107       .  S
C1719      H1725   1.087       .  S
C1719      C1720   1.367       .  D
C1721      H1726   1.081       .  S
C1721      C1722   1.380       .  D
C1722      C1742   1.508       .  S
In1727     O1729   2.306       .  S
In1727     O1730   2.260       .  S
In1727     O1738   2.237       .  S
In1727     O1732   2.223       .  S
In1727     O1734   2.265       .  S
In1727     O1735   2.273   1_545  S
In1727     O1736   2.269   1_545  S
In1727     O1739   2.309       .  S
C1728      O1734   1.256       .  A
C1728      O1736   1.264   1_545  A
C1728      C1752   1.513   1_545  S
O1729      C1737   1.260       .  A
O1730      C1737   1.262       .  A
C1731      O1738   1.257       .  A
C1731      O1732   1.262       .  A
C1733      O1735   1.263   1_545  A
C1733      O1739   1.258       .  A
C1733      C1796   1.496       .  S
C1737      C1784   1.496       .  S
C1740      C1741   1.527       .  S
C1740      C1746   1.528       .  S
C1740      C1744   1.536       .  S
C1741      H1748   1.082       .  S
C1741      C1742   1.374       .  D
C1742      C1743   1.560       .  S
C1743      C1747   1.560       .  S
C1743      C1745   1.559       .  S
C1743      H1749   1.108       .  S
C1744      H1750   1.086       .  S
C1744      C1745   1.364       .  D
C1745      C1757   1.494       .  S
C1746      H1751   1.086       .  S
C1746      C1747   1.363       .  D
C1747      C1774   1.496       .  S
C1752      C1753   1.541   1_565  S
C1752      C1758   1.521       .  S
C1752      C1756   1.528       .  S
C1753      H1760   1.083       .  S
C1753      C1754   1.381       .  D
C1754      C1755   1.551   1_545  S
C1755      C1759   1.564       .  S
C1755      C1757   1.562       .  S
C1755      H1761   1.107       .  S
C1756      H1762   1.087       .  S
C1756      C1757   1.365       .  D
C1758      H1763   1.088       .  S
C1758      C1759   1.358       .  D
C1759      C1770   1.496       .  S
In1764     O2366   2.309   1_554  S
In1764     O2367   2.265   1_554  S
In1764     O1775   2.248   1_554  S
In1764     O1769   2.249       .  S
In1764     O1771   2.266       .  S
In1764     O1772   2.270       .  S
In1764     O1773   2.271   1_554  S
In1764     O1776   2.314       .  S
C1765      O1771   1.257       .  A
C1765      O1773   1.263   1_554  A
C1765      C2389   1.515   1_554  S
O1766     In2364   2.309       .  S
O1766      C1774   1.260       .  A
O1767     In2364   2.265       .  S
O1767      C1774   1.263       .  A
C1768      O1775   1.257   1_554  A
C1768      O1769   1.262       .  A
C1770      O1772   1.262       .  A
C1770      O1776   1.258       .  A
C1777      C1778   1.531       .  S
C1778      H1785   1.083       .  S
C1778      C1779   1.375       .  D
C1780      C1784   1.558       .  S
C1780      C1782   1.561       .  S
C1780      H1786   1.107   1_545  S
C1781      H1787   1.087       .  S
C1781      C1782   1.364       .  D
C1782      C1794   1.499       .  S
C1783      H1788   1.087       .  S
C1783      C1784   1.366       .  D
C1789      C2365   1.515       .  S
C1789      C1790   1.539       .  S
C1789      C1795   1.521       .  S
C1789      C2393   1.532   1_565  S
C1790      H1797   1.079       .  S
C1790      C1791   1.382       .  D
C1791      C1792   1.548   1_565  S
C1792      C1796   1.564       .  S
C1792      C2394   1.564       .  S
C1792      H1798   1.107       .  S
C1793      C2389   1.531   1_544  S
C1793      H1799   1.087       .  S
C1793      C1794   1.366       .  D
C1794      C2392   1.564   1_554  S
C1795      H1800   1.088       .  S
C1795      C1796   1.357   1_565  D
In1801     O1803   2.301       .  S
In1801     O1804   2.259       .  S
In1801     O1812   2.241       .  S
In1801     O1806   2.238       .  S
In1801     O1808   2.254       .  S
In1801     O1809   2.262       .  S
In1801     O1810   2.265       .  S
In1801     O1813   2.309       .  S
C1802      O1808   1.256       .  A
C1802      O1810   1.264       .  A
C1802      C1826   1.508       .  S
O1803      C1811   1.259       .  A
O1804      C1811   1.263       .  A
C1805      O1812   1.257       .  A
C1805      O1806   1.262       .  A
C1805      C2244   1.453       .  S
C1807      O1809   1.263       .  A
C1807      O1813   1.259       .  A
C1807      C1857   1.495       .  S
C1811      C1845   1.491       .  S
C1814      C2043   1.504       .  S
C1814      C1820   1.525       .  S
C1814      C1818   1.534       .  S
C1815      H1822   1.088       .  S
C1815      C1816   1.373       .  D
C1816      C1944   1.504       .  S
C1817      C1821   1.559       .  S
C1817      C1819   1.560       .  S
C1817      H1823   1.108       .  S
C1818      H1824   1.087       .  S
C1818      C1819   1.363       .  D
C1819      C1831   1.492       .  S
C1820      H1825   1.087       .  S
C1820      C1821   1.361       .  D
C1821      C1872   1.490       .  S
C1826      C1827   1.541       .  S
C1826      C1832   1.518       .  S
C1826      C1830   1.527       .  S
C1827      H1834   1.084       .  S
C1827      C1828   1.379       .  D
C1828      C1829   1.551       .  S
C1828      C1930   1.508       .  S
C1829      C1833   1.565       .  S
C1829      C1831   1.563       .  S
C1829      H1835   1.107       .  S
C1830      H1836   1.087       .  S
C1830      C1831   1.364       .  D
C1832      H1837   1.088       .  S
C1832      C1833   1.357       .  D
C1833      C1868   1.496       .  S
C1838      C2155   1.519       .  S
C1838      C1839   1.532       .  S
C1838      C1844   1.527       .  S
C1839      H1846   1.083       .  S
C1839      C1840   1.376       .  D
C1840      C1841   1.560       .  S
C1840      C1905   1.510       .  S
C1841      C1845   1.557       .  S
C1841      C1843   1.561   1_556  S
C1841      H1847   1.108       .  S
C1842      H1848   1.086       .  S
C1844      H1849   1.087       .  S
C1844      C1845   1.362       .  D
C1850      C1863   1.517       .  S
C1850      C1851   1.537       .  S
C1850      C1856   1.520       .  S
C1850      C1854   1.534       .  S
C1851      H1858   1.083       .  S
C1851      C1852   1.380       .  D
C1852      C1853   1.549       .  S
C1852      C1893   1.504       .  S
C1853      C1857   1.564       .  S
C1853      C1855   1.563       .  S
C1853      H1859   1.107       .  S
C1854      C1855   1.369       .  D
C1856      H1861   1.088       .  S
C1856      C1857   1.358       .  D
In1862     O1864   2.300       .  S
In1862     O1865   2.263       .  S
In1862     O1867   2.256       .  S
In1862     O1869   2.269       .  S
In1862     O1871   2.268       .  S
C1863      O1869   1.260       .  A
C1863      O1871   1.263       .  A
O1864      C1872   1.258       .  A
O1865      C1872   1.263       .  A
C1866      O1873   1.256       .  A
C1866      C1978   1.462       .  S
C1868      O1870   1.261       .  A
C1868      O1874   1.259       .  A
In1875     O1877   2.314       .  S
In1875     O1878   2.257       .  S
In1875     O1886   2.243       .  S
In1875     O1880   2.237       .  S
In1875     O1882   2.258       .  S
In1875     O1884   2.264       .  S
C1876      O1882   1.256       .  A
C1876      O1884   1.265       .  A
C1876      C1900   1.510       .  S
O1877      C1885   1.259       .  A
O1878      C1885   1.263       .  A
C1879      O1886   1.257       .  A
C1879      O1880   1.261       .  A
C1879      C2168   1.453       .  S
C1881      O1883   1.262       .  A
C1881      O1887   1.259       .  A
C1881      C1932   1.491       .  S
C1885      C1939   1.496       .  S
C1888      C1965   1.503       .  S
C1888      C1889   1.534       .  S
C1888      C1894   1.525       .  S
C1888      C1892   1.525       .  S
C1889      H1896   1.087       .  S
C1889      C1890   1.362       .  D
C1890      C1891   1.560       .  S
C1890      C1902   1.492       .  S
C1891      C1895   1.559       .  S
C1891      C1893   1.559       .  S
C1891      H1897   1.108       .  S
C1892      H1898   1.084       .  S
C1892      C1893   1.372       .  D
C1894      H1899   1.087       .  S
C1894      C1895   1.362       .  D
C1895      C1918   1.491       .  S
C1900      C1901   1.527       .  S
C1901      H1908   1.087       .  S
C1901      C1902   1.364       .  D
C1903      C1907   1.566       .  S
C1903      C1905   1.551       .  S
C1903      H1909   1.107       .  S
C1904      H1910   1.083       .  S
C1904      C1905   1.381       .  D
C1906      H1911   1.088       .  S
C1906      C1907   1.357       .  D
C1907      C1922   1.497       .  S
In1912     O1914   2.324       .  S
In1912     O1915   2.252       .  S
In1912     O1923   2.249       .  S
In1912     O1917   2.259       .  S
In1912     O1919   2.267       .  S
In1912     O1920   2.261       .  S
In1912     O1921   2.269       .  S
In1912     O1924   2.302       .  S
C1913      O1919   1.260       .  A
C1913      O1921   1.264       .  A
C1913      C1937   1.517       .  S
O1914      C1922   1.259       .  A
O1915      C1922   1.261       .  A
C1916      O1923   1.257       .  A
C1916      O1917   1.262       .  A
C1916      C2054   1.464       .  S
C1918      O1920   1.263       .  A
C1918      O1924   1.258       .  A
C1925      C2231   1.521       .  S
C1925      C1926   1.541       .  S
C1925      C1931   1.527       .  S
C1926      H1933   1.086       .  S
C1926      C1927   1.367       .  D
C1927      C1928   1.560       .  S
C1927      C1942   1.503       .  S
C1928      C1932   1.556       .  S
C1928      H1934   1.108       .  S
C1929      H1935   1.084       .  S
C1929      C1930   1.377       .  D
C1931      H1936   1.087       .  S
C1931      C1932   1.362       .  D
C1937      C1938   1.519       .  S
C1937      C1943   1.537       .  S
C1937      C1941   1.534       .  S
C1938      H1945   1.088       .  S
C1938      C1939   1.358       .  D
C1939      C1940   1.565       .  S
C1940      C1944   1.549       .  S
C1940      C1942   1.564       .  S
C1940      H1946   1.108       .  S
C1941      H1947   1.086       .  S
C1941      C1942   1.369       .  D
C1943      H1948   1.087       .  S
C1943      C1944   1.379       .  D
C1949      C2000   1.478       .  S
C1949      C1950   1.541       .  S
C1949      C1955   1.511       .  S
C1949      C1953   1.538       .  S
C1950      C1951   1.369       .  D
C1951      C1975   1.461       .  S
C1951      C1952   1.520       .  S
C1952      C1956   1.543       .  S
C1952      C1954   1.539       .  S
C1952      H1958   1.111       .  S
C1953      C1954   1.364       .  D
C1954      C2038   1.465       .  S
C1955      H1960   1.087       .  S
C1955      C1956   1.350       .  D
C1956      C2098   1.447       .  S
In1961     O1963   2.202       .  S
In1961     O1964   2.226       .  S
In1961     O1972   2.248       .  S
In1961     O1966   2.237       .  S
In1961     O1968   2.214       .  S
In1961     O1969   2.238       .  S
In1961     O1970   2.212       .  S
In1961     O1973   2.221       .  S
C1962      C1987   1.481       .  S
O1963      C1971   1.261       .  A
O1964      C1971   1.265       .  A
C1965      O1972   1.264       .  A
C1965      O1966   1.258       .  A
C1967      O1969   1.261       .  A
C1967      O1973   1.259       .  A
C1967      C2030   1.464       .  S
C1971      C1984   1.449       .  S
In1974     O1977   2.211       .  S
In1974     O1985   2.232   1_554  S
In1974     O1982   2.210   1_554  S
In1974     O1986   2.213       .  S
C1975      O1981   1.268       .  A
C1975      O1983   1.258       .  A
O1976      C1984   1.261       .  A
C1978      O1985   1.261   1_554  A
C1980      O1982   1.264       .  A
C1980      O1986   1.262   1_556  A
C1980      C2065   1.448       .  S
C1987      C1993   1.512       .  S
C1987      C1991   1.540       .  S
C1988      H1995   1.086       .  S
C1989      C2013   1.460       .  S
C1989      C1990   1.519       .  S
C1990      C1994   1.544       .  S
C1990      C1992   1.539       .  S
C1990      H1996   1.111       .  S
C1991      H1997   1.087       .  S
C1991      C1992   1.364       .  D
C1992      C2076   1.469       .  S
C1993      H1998   1.087       .  S
C1993      C1994   1.351       .  D
C1994      C2060   1.450       .  S
In1999     O2002   2.223       .  S
In1999     O2010   2.253   1_655  S
In1999     O2007   2.247       .  S
C2000      O2006   1.263       .  A
O2001      C2009   1.261       .  A
C2003      O2004   1.259   1_556  A
C2003      C2266   1.508       .  S
C2005      O2011   1.259       .  A
C2005      C2068   1.468       .  S
C2009      C2022   1.449       .  S
In2012     O2014   2.221       .  S
In2012     O2015   2.212       .  S
In2012     O2023   2.226       .  S
In2012     O2017   2.239       .  S
In2012     O2020   2.211       .  S
In2012     O2021   2.207       .  S
In2012     O2024   2.217       .  S
C2013      O2019   1.269       .  A
O2014      C2022   1.261       .  A
O2015      C2022   1.262       .  A
C2016      O2023   1.262       .  A
C2016      O2017   1.267       .  A
C2016      C2368   1.461       .  S
C2018      O2020   1.263       .  A
C2018      O2024   1.263       .  A
C2018      C2027   1.450       .  S
C2025      C2085   1.479       .  S
C2025      C2026   1.513       .  S
C2025      C2031   1.541       .  S
C2025      C2029   1.537       .  S
C2026      H2033   1.087       .  S
C2026      C2027   1.351       .  D
C2027      C2028   1.543       .  S
C2028      C2032   1.517       .  S
C2028      C2030   1.538       .  S
C2028      H2034   1.111       .  S
C2029      H2035   1.087       .  S
C2029      C2030   1.364       .  D
C2031      H2036   1.087       .  S
C2031      C2032   1.369       .  D
C2032      C2051   1.459       .  S
In2037     O2039   2.215       .  S
In2037     O2048   2.194       .  S
In2037     O2042   2.231       .  S
In2037     O2044   2.238       .  S
In2037     O2049   2.249   1_655  S
C2038      O2046   1.259       .  A
O2040      C2047   1.263       .  A
C2041      O2048   1.260       .  A
C2041      O2042   1.265       .  A
C2041      C2056   1.448       .  S
C2043      O2045   1.258       .  A
C2047      C2063   1.480       .  S
In2050     O2052   2.215       .  S
In2050     O2053   2.213       .  S
In2050     O2061   2.234       .  S
In2050     O2055   2.241       .  S
In2050     O2057   2.224       .  S
In2050     O2058   2.203       .  S
In2050     O2059   2.209       .  S
In2050     O2062   2.231       .  S
C2051      O2057   1.269       .  A
C2051      O2059   1.257       .  A
O2052      C2060   1.262       .  A
O2053      C2060   1.263       .  A
C2054      O2061   1.261       .  A
C2054      O2055   1.267       .  A
C2056      O2058   1.261       .  A
C2056      O2062   1.262       .  A
C2063      C2064   1.512       .  S
C2063      C2069   1.540       .  S
C2063      C2067   1.540       .  S
C2064      H2071   1.087       .  S
C2064      C2065   1.351       .  D
C2065      C2066   1.543       .  S
C2066      C2070   1.518       .  S
C2066      C2068   1.538       .  S
C2066      H2072   1.111       .  S
C2067      C2068   1.365       .  D
C2069      H2074   1.087       .  S
C2069      C2070   1.368       .  D
C2070      C2089   1.459       .  S
In2075     O2077   2.214       .  S
In2075     O2078   2.208       .  S
In2075     O2086   2.204       .  S
In2075     O2080   2.227       .  S
In2075     O2082   2.248       .  S
In2075     O2083   2.252       .  S
In2075     O2084   2.228       .  S
In2075     O2087   2.254       .  S
C2076      O2082   1.261       .  A
C2076      O2084   1.259       .  A
O2077      C2085   1.258       .  A
O2078      C2085   1.263       .  A
C2079      O2086   1.261       .  A
C2079      O2080   1.265       .  A
C2079      C2094   1.449       .  S
C2081      O2083   1.259       .  A
C2081      O2087   1.264       .  A
C2081      C2340   1.511       .  S
In2088     O2090   2.216       .  S
In2088     O2091   2.207       .  S
In2088     O2099   2.227       .  S
In2088     O2093   2.242       .  S
In2088     O2095   2.227       .  S
In2088     O2096   2.207       .  S
In2088     O2097   2.208       .  S
In2088     O2100   2.223       .  S
C2089      O2095   1.269       .  A
C2089      O2097   1.257       .  A
O2090      C2098   1.262       .  A
O2091      C2098   1.262       .  A
C2092      O2099   1.262       .  A
C2092      O2093   1.267       .  A
C2092      C2294   1.462       .  S
C2094      O2096   1.262       .  A
C2094      O2100   1.262       .  A
C2101      C2246   1.481       .  S
C2101      C2102   1.507       .  S
C2101      C2107   1.547       .  S
C2101      C2105   1.532       .  S
C2102      H2109   1.087       .  S
C2102      C2103   1.352       .  D
C2103      C2152   1.454       .  S
C2103      C2104   1.546       .  S
C2104      C2108   1.529       .  S
C2104      C2106   1.533       .  S
C2104      H2110   1.111       .  S
C2105      H2111   1.086       .  S
C2105      C2106   1.354       .  D
C2106      C2127   1.457       .  S
C2107      H2112   1.085       .  S
C2107      C2108   1.380       .  D
C2108      C2195   1.471       .  S
In2113     O2116   2.234       .  S
In2113     O2124   2.267       .  S
In2113     O2121   2.227       .  S
In2113     O2122   2.204       .  S
In2113     O2125   2.212       .  S
C2114      C2139   1.488       .  S
O2115      C2123   1.270       .  A
C2117      O2124   1.266       .  A
C2117      C2377   1.518       .  S
C2119      O2121   1.262       .  A
C2119      O2125   1.260       .  A
C2119      C2132   1.449       .  S
C2123      C2179   1.473       .  S
In2126     O2128   2.175   1_554  S
In2126     O2129   2.215   1_554  S
In2126     O2137   2.198       .  S
In2126     O2134   2.211       .  S
C2127      O2133   1.258       .  A
C2127      O2135   1.258       .  A
O2128      C2136   1.258       .  A
O2129      C2136   1.262       .  A
C2130      O2137   1.257       .  A
C2130      C2257   1.447       .  S
C2132      O2138   1.263       .  A
C2136      C2222   1.440       .  S
C2139      C2140   1.505       .  S
C2139      C2143   1.545       .  S
C2140      H2147   1.088       .  S
C2140      C2141   1.352       .  D
C2141      C2208   1.441       .  S
C2141      C2142   1.533       .  S
C2142      C2146   1.522       .  S
C2142      C2144   1.536       .  S
C2142      H2148   1.112       .  S
C2143      C2144   1.366       .  D
C2144      C2233   1.476       .  S
C2145      H2150   1.087       .  S
C2146      C2165   1.457       .  S
In2151     O2153   2.236       .  S
In2151     O2154   2.251       .  S
In2151     O2162   2.268       .  S
In2151     O2156   2.261   1_556  S
In2151     O2159   2.226       .  S
C2152      O2158   1.264       .  A
C2152      O2160   1.256       .  A
O2153      C2161   1.262       .  A
O2154      C2161   1.261       .  A
C2155      O2162   1.267       .  A
C2155      O2156   1.258   1_556  A
C2157      O2163   1.257       .  A
C2157      C2170   1.445       .  S
C2161      C2220   1.475       .  S
In2164     O2166   2.229       .  S
In2164     O2167   2.177       .  S
In2164     O2175   2.210       .  S
In2164     O2169   2.237       .  S
In2164     O2172   2.209       .  S
In2164     O2173   2.210       .  S
C2165      O2171   1.271       .  A
O2166      C2174   1.263       .  A
O2167      C2174   1.269       .  A
C2168      O2175   1.259       .  A
C2168      O2169   1.266       .  A
C2170      O2172   1.263       .  A
C2174      C2177   1.481       .  S
C2177      C2178   1.546       .  S
C2177      C2183   1.508       .  S
C2177      C2181   1.531       .  S
C2178      H2185   1.085       .  S
C2178      C2179   1.380       .  D
C2179      C2180   1.529       .  S
C2180      C2184   1.547       .  S
C2180      C2182   1.534       .  S
C2180      H2186   1.111       .  S
C2181      H2187   1.086       .  S
C2181      C2182   1.354       .  D
C2182      C2203   1.456       .  S
C2183      H2188   1.087       .  S
C2183      C2184   1.352       .  D
C2184      C2228   1.455       .  S
In2189     O2191   2.209       .  S
In2189     O2192   2.227       .  S
In2189     O2200   2.269       .  S
In2189     O2194   2.257       .  S
In2189     O2196   2.228       .  S
In2189     O2197   2.236       .  S
In2189     O2198   2.207       .  S
In2189     O2201   2.236       .  S
C2190      O2196   1.261       .  A
C2190      O2198   1.264       .  A
C2190      C2215   1.488       .  S
O2191      C2199   1.260       .  A
O2192      C2199   1.262       .  A
C2193      O2200   1.266       .  A
C2193      O2194   1.261       .  A
C2193      C2303   1.519       .  S
C2195      O2197   1.258       .  A
C2195      O2201   1.270       .  A
C2199      C2212   1.448       .  S
In2202     O2204   2.220       .  S
In2202     O2205   2.207       .  S
In2202     O2213   2.196       .  S
In2202     O2207   2.239       .  S
In2202     O2209   2.231       .  S
In2202     O2210   2.218       .  S
In2202     O2211   2.209       .  S
In2202     O2214   2.175       .  S
C2203      O2209   1.258       .  A
C2203      O2211   1.258       .  A
O2204      C2212   1.263       .  A
O2205      C2212   1.262       .  A
C2206      O2213   1.256       .  A
C2206      O2207   1.266       .  A
C2206      C2331   1.447       .  S
C2208      O2210   1.261       .  A
C2208      O2214   1.258       .  A
C2215      C2216   1.544       .  S
C2215      C2221   1.506       .  S
C2215      C2219   1.544       .  S
C2216      H2223   1.087       .  S
C2216      C2217   1.375       .  D
C2217      C2241   1.456       .  S
C2217      C2218   1.519       .  S
C2218      C2222   1.532       .  S
C2218      C2220   1.535       .  S
C2218      H2224   1.112       .  S
C2219      H2225   1.087       .  S
C2219      C2220   1.366       .  D
C2221      H2226   1.088       .  S
C2221      C2222   1.353       .  D
In2227     O2232   2.264       .  S
In2227     O2234   2.215       .  S
In2227     O2236   2.225       .  S
In2227     O2239   2.239       .  S
C2228      O2234   1.264       .  A
C2228      O2236   1.256       .  A
O2229      C2237   1.258       .  A
O2230      C2237   1.263       .  A
C2231      O2232   1.258       .  A
C2233      O2239   1.261       .  A
C2237      C2250   1.446       .  S
In2240     O2242   2.220       .  S
In2240     O2243   2.204       .  S
In2240     O2251   2.209       .  S
In2240     O2245   2.235       .  S
In2240     O2247   2.201       .  S
In2240     O2248   2.175       .  S
In2240     O2249   2.210       .  S
In2240     O2252   2.230       .  S
C2241      O2247   1.271       .  A
C2241      O2249   1.261       .  A
O2242      C2250   1.261       .  A
O2243      C2250   1.263       .  A
C2244      O2251   1.259       .  A
C2244      O2245   1.267       .  A
C2246      O2248   1.269       .  A
C2246      O2252   1.263       .  A
In2253     O2258   2.228       .  S
In2253     O2260   2.260       .  S
In2253     O2261   2.259       .  S
In2253     O2262   2.266   1_545  S
In2253     O2265   2.307       .  S
C2254      O2260   1.256       .  A
C2254      O2262   1.264   1_545  A
C2254      C2278   1.510   1_545  S
O2255      C2263   1.263   1_565  A
O2256      C2263   1.259       .  A
C2257      O2264   1.256       .  A
C2259      O2261   1.262       .  A
C2259      O2265   1.260       .  A
C2259      C2305   1.496       .  S
C2263      C2317   1.498       .  S
C2266      C2272   1.527       .  S
C2267      H2274   1.086       .  S
C2267      C2268   1.363       .  D
C2268      C2283   1.490       .  S
C2269      C2273   1.560       .  S
C2269      H2275   1.108       .  S
C2270      H2276   1.079       .  S
C2270      C2271   1.373       .  D
C2271      C2391   1.506       .  S
C2272      H2277   1.086       .  S
C2272      C2273   1.363       .  D
C2273      C2296   1.495       .  S
C2278      C2279   1.521       .  S
C2278      C2284   1.541   1_565  S
C2278      C2282   1.527       .  S
C2279      H2286   1.088       .  S
C2279      C2280   1.357       .  D
C2280      C2300   1.493       .  S
C2280      C2281   1.562       .  S
C2281      C2285   1.550   1_565  S
C2281      C2283   1.561       .  S
C2281      H2287   1.107       .  S
C2282      C2283   1.364       .  D
C2284      H2289   1.082       .  S
C2284      C2285   1.381       .  D
C2285      C2379   1.509       .  S
In2290     O2292   2.303       .  S
In2290     O2293   2.275       .  S
In2290     O2301   2.251       .  S
In2290     O2295   2.250       .  S
In2290     O2297   2.265       .  S
In2290     O2298   2.266       .  S
In2290     O2299   2.277       .  S
In2290     O2302   2.306       .  S
C2291      O2297   1.257       .  A
C2291      O2299   1.262       .  A
C2291      C2315   1.515       .  S
O2292      C2300   1.257       .  A
O2293      C2300   1.262       .  A
C2294      O2301   1.257       .  A
C2294      O2295   1.262       .  A
C2296      O2298   1.264       .  A
C2296      O2302   1.260       .  A
C2303      C2304   1.530       .  S
C2303      C2309   1.531       .  S
C2303      C2307   1.538       .  S
C2304      H2311   1.087       .  S
C2304      C2305   1.366       .  D
C2305      C2306   1.558       .  S
C2306      C2310   1.560       .  S
C2306      C2308   1.560       .  S
C2306      H2312   1.108   1_545  S
C2307      H2313   1.086       .  S
C2307      C2308   1.365       .  D
C2308      C2320   1.499       .  S
C2309      H2314   1.083       .  S
C2309      C2310   1.376       .  D
C2310      C2354   1.510       .  S
C2315      C2316   1.520       .  S
C2315      C2321   1.538       .  S
C2315      C2319   1.531   1_565  S
C2316      H2323   1.088       .  S
C2316      C2317   1.358   1_565  D
C2317      C2318   1.566       .  S
C2318      C2322   1.550   1_545  S
C2318      C2320   1.565       .  S
C2318      H2324   1.107       .  S
C2319      H2325   1.087       .  S
C2319      C2320   1.367       .  D
C2321      H2326   1.081       .  S
C2321      C2322   1.380       .  D
C2322      C2342   1.508       .  S
In2327     O2329   2.306       .  S
In2327     O2330   2.260       .  S
In2327     O2338   2.237       .  S
In2327     O2332   2.223       .  S
In2327     O2334   2.265       .  S
In2327     O2335   2.273   1_545  S
In2327     O2336   2.269   1_545  S
In2327     O2339   2.309       .  S
C2328      O2334   1.256       .  A
C2328      O2336   1.264   1_545  A
C2328      C2352   1.513   1_545  S
O2329      C2337   1.260       .  A
O2330      C2337   1.262       .  A
C2331      O2338   1.257       .  A
C2331      O2332   1.262       .  A
C2333      O2335   1.263   1_545  A
C2333      O2339   1.258       .  A
C2333      C2396   1.496       .  S
C2337      C2384   1.497       .  S
C2340      C2341   1.527       .  S
C2340      C2346   1.528       .  S
C2340      C2344   1.536       .  S
C2341      H2348   1.082       .  S
C2341      C2342   1.374       .  D
C2342      C2343   1.560       .  S
C2343      C2347   1.560       .  S
C2343      C2345   1.559       .  S
C2343      H2349   1.108       .  S
C2344      H2350   1.086       .  S
C2344      C2345   1.364       .  D
C2345      C2357   1.494       .  S
C2346      H2351   1.086       .  S
C2346      C2347   1.363       .  D
C2347      C2374   1.496       .  S
C2352      C2353   1.541   1_565  S
C2352      C2358   1.521       .  S
C2352      C2356   1.528       .  S
C2353      H2360   1.083       .  S
C2353      C2354   1.381       .  D
C2354      C2355   1.551   1_545  S
C2355      C2359   1.564       .  S
C2355      C2357   1.562       .  S
C2355      H2361   1.107       .  S
C2356      H2362   1.087       .  S
C2356      C2357   1.365       .  D
C2358      H2363   1.088       .  S
C2358      C2359   1.358       .  D
C2359      C2370   1.497       .  S
In2364     O2375   2.248       .  S
In2364     O2369   2.249       .  S
In2364     O2371   2.266       .  S
In2364     O2372   2.270       .  S
In2364     O2373   2.271       .  S
In2364     O2376   2.314       .  S
C2365      O2371   1.257       .  A
C2365      O2373   1.263       .  A
O2366      C2374   1.260       .  A
O2367      C2374   1.263       .  A
C2368      O2375   1.257       .  A
C2368      O2369   1.262       .  A
C2370      O2372   1.262       .  A
C2370      O2376   1.258       .  A
C2377      C2378   1.531       .  S
C2378      H2385   1.083       .  S
C2378      C2379   1.376       .  D
C2380      C2384   1.558       .  S
C2380      C2382   1.561       .  S
C2380      H2386   1.107   1_545  S
C2381      H2387   1.087       .  S
C2381      C2382   1.364       .  D
C2382      C2394   1.499       .  S
C2383      H2388   1.087       .  S
C2383      C2384   1.366       .  D
C2389      C2390   1.539       .  S
C2389      C2395   1.521       .  S
C2390      H2397   1.079       .  S
C2390      C2391   1.382       .  D
C2391      C2392   1.548   1_565  S
C2392      C2396   1.564       .  S
C2392      H2398   1.107       .  S
C2393      H2399   1.087       .  S
C2393      C2394   1.366       .  D
C2395      H2400   1.088       .  S
C2395      C2396   1.357   1_565  D
