geometry optimzed in LAMMPS
_audit_creation_date              2020-11-30 
_audit_creation_method            'lammps2cif' 
_symmetry_space_group_name_H-M    'P1' 
_symmetry_Int_Tables_number       1 
_symmetry_cell_setting            triclinic 
loop_ 
_symmetry_equiv_pos_as_xyz 
  x,y,z 
_cell_length_a                    26.456134066142138 
_cell_length_b                    25.13872302502907 
_cell_length_c                    33.254954585593865 
_cell_angle_alpha                 90.2018705190827 
_cell_angle_beta                  89.71131095478528 
_cell_angle_gamma                 87.8719365283971 
loop_ 
_atom_site_label 
_atom_site_type_symbol 
_atom_site_fract_x 
_atom_site_fract_y 
_atom_site_fract_z 
_atom_site_charge 
O1          O  0.33023533  0.59241357  0.12240010    -0.57450
C2          C  0.25465874  0.71365728  0.18580217     0.75180
O3          O  0.20034372  0.69525099  0.07022451    -0.58610
C4          C  0.32324533  0.56549406  0.09072030     0.75150
C5          C  0.16841500  0.57273807  0.15146048     0.77540
Cd6        Cd  0.24622077  0.63884036  0.12073225     1.37470
O7          O  0.29335771  0.68626703  0.17450362    -0.57450
O8          O  0.21149927  0.57597258  0.16750785    -0.56260
C9          C  0.24058955  0.71057152  0.05385876     0.77500
O10         O  0.16207136  0.59737988  0.11857701    -0.58630
O11         O  0.21419433  0.70671988  0.16688473    -0.57080
O12         O  0.27947204  0.56968669  0.07548789    -0.57070
O13         O  0.28184321  0.69259129  0.06814517    -0.56250
O14         O  0.32989242  0.86387883  0.28440671    -0.57450
C15         C  0.25479139  0.75085385  0.21976723     0.75180
O16         O  0.20315654  0.77801222  0.01162333    -0.58610
C17         C  0.32558744  0.88654582  0.31841287     0.75150
C18         C  0.16333090  0.88701968  0.26144857     0.77540
Cd19       Cd  0.24722411  0.82180037  0.28823226     1.37460
O20         O  0.29473305  0.76676135  0.23595819    -0.57450
O21         O  0.20797664  0.89762036  0.25095909    -0.56260
C22         C  0.24068788  0.74751600  0.02006420     0.77500
O23         O  0.15852664  0.85113856  0.28765703    -0.58630
O24         O  0.21349482  0.76835552  0.23455279    -0.57080
O25         O  0.28319105  0.88458133  0.00270522    -0.57070
O26         O  0.27961642  0.75100600  0.33164043    -0.56250
O27         O  0.29371442  0.27031348  0.15831974    -0.57450
C28         C  0.40564558  0.29621052  0.24487398     0.75180
O29         O  0.29629147  0.17006862  0.26476777    -0.58610
C30         C  0.27426959  0.22891827  0.14425885     0.75150
C31         C  0.40773014  0.13606578  0.17852512     0.77540
Cd32       Cd  0.34178230  0.21856260  0.21106514     1.37460
O33         O  0.38301028  0.30494969  0.21185472    -0.57450
O34         O  0.41056161  0.18423224  0.16807473    -0.56260
C35         C  0.27251170  0.21161711  0.27724643     0.77500
O36         O  0.37735382  0.12674967  0.20705701    -0.58630
O37         O  0.40226499  0.25008705  0.25954550    -0.57080
O38         O  0.28585104  0.18537993  0.16114889    -0.57070
O39         O  0.28016749  0.25437681  0.25878001    -0.56250
O40         O  0.21769990  0.17038770  0.32470516    -0.57450
C41         C  0.10749399  0.14131626  0.08084910     0.75180
O42         O  0.21615463  0.27073984  0.09772260    -0.58610
C43         C  0.23821905  0.21186225  0.31182591     0.75150
C44         C  0.10150916  0.29791060  0.01156724     0.77540
Cd45       Cd  0.16991779  0.21983567  0.04555601     1.37460
O46         O  0.13551097  0.12990730  0.05070296    -0.57450
O47         O  0.10797050  0.25162998  0.33010930    -0.56260
C48         C  0.23992776  0.22928434  0.11006501     0.77500
O49         O  0.12277604  0.30668756  0.04493231    -0.58630
O50         O  0.10658203  0.18936861  0.09229821    -0.57080
O51         O  0.22758585  0.25496859  0.99678067    -0.57070
O52         O  0.23197906  0.18620691  0.09201354    -0.56250
O53         O  0.66350563  0.09534901  0.29676477    -0.57450
C54         C  0.73929932  0.21213076  0.23208860     0.75180
O55         O  0.79459685  0.18569051  0.01616808    -0.58610
C56         C  0.67137930  0.06819019  0.32838188     0.75150
C57         C  0.82471301  0.06826360  0.26144134     0.77540
Cd58       Cd  0.74715173  0.13682591  0.29693005     1.37460
O59         O  0.69962020  0.19135664  0.24538833    -0.57450
O60         O  0.78131152  0.07535993  0.24603691    -0.56260
C61         C  0.75491774  0.20852248  0.03046895     0.77500
O62         O  0.83105879  0.08882736  0.29586712    -0.58630
O63         O  0.78032621  0.19903125  0.24920470    -0.57080
O64         O  0.71541061  0.06974070  0.00958343    -0.57070
O65         O  0.71364599  0.19848231  0.34706079    -0.56250
O66         O  0.79391289  0.26917010  0.07568434    -0.57450
C67         C  0.82890568  0.38388046  0.15832101     0.75180
O68         O  0.66180133  0.36280620  0.12932005    -0.58610
C69         C  0.75516371  0.24487060  0.06486956     0.75150
C70         C  0.73955479  0.24872139  0.19793816     0.77540
Cd71       Cd  0.74759852  0.31975184  0.13048799     1.37460
O72         O  0.83392876  0.35178447  0.12899214    -0.57450
O73         O  0.78010524  0.25543900  0.17883487    -0.56260
C74         C  0.66831877  0.38609329  0.09605807     0.77500
O75         O  0.70071555  0.27504992  0.18613769    -0.58630
O76         O  0.78461970  0.39010554  0.17273575    -0.57080
O77         O  0.71512110  0.25413982  0.08481669    -0.57070
O78         O  0.71264996  0.38411184  0.08150676    -0.56250
O79         O  0.71112610  0.77056064  0.26261111    -0.57450
C80         C  0.59724701  0.79565824  0.17452184     0.75180
O81         O  0.71484548  0.67061259  0.15698792    -0.58610
C82         C  0.73257713  0.72878251  0.27671062     0.75150
C83         C  0.60401769  0.63908165  0.24175480     0.77540
Cd84       Cd  0.66579439  0.71953871  0.21010001     1.37470
O85         O  0.61810941  0.80548330  0.20788544    -0.57450
O86         O  0.59941685  0.68717952  0.25317901    -0.56260
C87         C  0.73533806  0.71225359  0.14449556     0.77500
O88         O  0.63455840  0.62914627  0.21297826    -0.58630
O89         O  0.60474133  0.74923528  0.16028736    -0.57080
O90         O  0.72319728  0.68525364  0.25988943    -0.57070
O91         O  0.72470441  0.75518595  0.16298660    -0.56250
O92         O  0.87459428  0.80784522  0.04070208    -0.57450
C93         C  0.76671196  0.72883823  0.31097029     0.75180
O94         O  0.87600344  0.62908962  0.04191349    -0.58610
C95         C  0.89542685  0.80247119  0.07477383     0.75150
C96         C  0.76914769  0.71238955  0.10982431     0.77540
Cd97       Cd  0.83635148  0.71988299  0.04295405     1.37460
O98         O  0.78836386  0.76995331  0.32308349    -0.57450
O99         O  0.77637505  0.75535659  0.09153941    -0.56260
C100        C  0.90323417  0.63740617  0.01131586     0.77500
O101        O  0.79249687  0.67087992  0.09683039    -0.58630
O102        O  0.77657797  0.68601323  0.99610419    -0.57080
O103        O  0.89358939  0.75719771  0.09113979    -0.57070
O104        O  0.90303767  0.68500544  0.33222850    -0.56250
C105        C  0.99386335  0.97352712  0.16327661    -0.02130
C106        C  0.00760690  0.47073186  0.24333639    -0.02130
C107        C  0.49959541  0.96516799  0.07488004    -0.02130
C108        C  0.49701817  0.47428624  0.33177661    -0.02130
C109        C  0.96385250  0.60968979  0.29140677    -0.19940
C110        C  0.93164421  0.59425302  0.32232140    -0.06510
C111        C  0.92084038  0.53978061  0.99221210     0.14360
C112        C  0.94391248  0.50293126  0.29862585    -0.20000
C113        C  0.98145331  0.51690077  0.27022799    -0.06510
C114        C  0.98463072  0.57333559  0.26329145     0.14350
C115        C  0.99790570  0.59789979  0.22323355    -0.23350
H116        H  0.96933148  0.65174688  0.28675539     0.15640
H117        H  0.93322169  0.46177779  0.96683227     0.15660
C118        C  0.88426237  0.51975418  0.02307630    -0.23290
H119        H  0.98167134  0.63911010  0.22031509     0.05880
H120        H  0.98092907  0.57551530  0.19825161     0.09100
H121        H  0.03916103  0.60141773  0.21956716     0.09100
H122        H  0.84606917  0.53831850  0.01820944     0.09090
H123        H  0.89766974  0.52926688  0.05377323     0.09090
H124        H  0.88081084  0.47591672  0.02125005     0.05860
C125        C  0.94678283  0.88315093  0.07365879    -0.19940
C126        C  0.91846169  0.84745266  0.09554520    -0.06510
C127        C  0.90866221  0.85775370  0.13644251     0.14360
C128        C  0.93197740  0.90004343  0.15521579    -0.20000
C129        C  0.96590413  0.93361188  0.13508808    -0.06510
C130        C  0.96828745  0.92773999  0.09180227     0.14350
C131        C  0.98794113  0.96656326  0.06132338    -0.23350
H132        H  0.95076535  0.87707597  0.04144372     0.15640
H133        H  0.92631881  0.90404861  0.18732911     0.15660
C134        C  0.87354248  0.82440115  0.16089902    -0.23290
H135        H  0.95767592  0.97494931  0.03920633     0.05880
H136        H  0.02107696  0.94858055  0.04500878     0.09100
H137        H  0.99651631  0.00636266  0.07191547     0.09100
H138        H  0.88946584  0.78314162  0.16359120     0.09090
H139        H  0.83586718  0.82397349  0.14634491     0.09090
H140        H  0.86792665  0.84026576  0.19188174     0.05860
C141        C  0.53033879  0.61186745  0.28128217    -0.19940
C142        C  0.57580318  0.59708992  0.26222258    -0.06510
C143        C  0.59541151  0.54472029  0.26670802     0.14360
C144        C  0.56827870  0.50850937  0.28936434    -0.20000
C145        C  0.52055310  0.52116328  0.30746090    -0.06510
C146        C  0.50271621  0.57629030  0.30455514     0.14350
C147        C  0.45697530  0.60241100  0.32546237    -0.23350
H148        H  0.51639077  0.65273902  0.27814554     0.15640
H149        H  0.58422333  0.46839733  0.29178134     0.15660
C150        C  0.64561595  0.52654982  0.24866404    -0.23290
H151        H  0.45878151  0.64649528  0.32576501     0.05880
H152        H  0.45397720  0.59226963  0.35759432     0.09100
H153        H  0.42196089  0.59476410  0.30887662     0.09100
H154        H  0.67598873  0.55196896  0.25991649     0.09090
H155        H  0.64381677  0.52873303  0.21537117     0.09090
H156        H  0.65601312  0.48471484  0.25664401     0.05860
C157        C  0.57319780  0.83412140  0.10919075    -0.19940
C158        C  0.56925119  0.83699872  0.15105344    -0.06510
C159        C  0.54297080  0.88074071  0.16868399     0.14360
C160        C  0.52248831  0.92112887  0.14401208    -0.20000
C161        C  0.52432384  0.91861679  0.10122083    -0.06510
C162        C  0.55273135  0.87404101  0.08406115     0.14350
C163        C  0.56402011  0.86712465  0.03960437    -0.23350
H164        H  0.59475836  0.80096370  0.09591036     0.15640
H165        H  0.50573343  0.95505632  0.15948556     0.15660
C166        C  0.53527204  0.88479854  0.21354926    -0.23290
H167        H  0.58413957  0.82852550  0.03292507     0.05880
H168        H  0.58960334  0.89790468  0.02892260     0.09100
H169        H  0.52919398  0.86704224  0.02165273     0.09100
H170        H  0.57206626  0.88965790  0.22869368     0.09090
H171        H  0.51740532  0.84840372  0.22481332     0.09090
H172        H  0.51006390  0.91943022  0.22189709     0.05860
C173        C  0.60884004  0.46150049  0.07799105    -0.19940
C174        C  0.62539170  0.40868026  0.07276429    -0.06510
C175        C  0.60252397  0.37756895  0.04343748     0.14360
C176        C  0.56291324  0.39956081  0.02043935    -0.20000
C177        C  0.54207785  0.45213026  0.02656307    -0.06510
C178        C  0.56853433  0.48400261  0.05530535     0.14350
C179        C  0.55689240  0.54203838  0.06370961    -0.23350
H180        H  0.62790648  0.48572384  0.09984556     0.15640
H181        H  0.55036998  0.37465409  0.99635709     0.15660
C182        C  0.62054018  0.32067863  0.03583403    -0.23290
H183        H  0.54873323  0.54789279  0.09625958     0.05880
H184        H  0.52410412  0.55798563  0.04747058     0.09100
H185        H  0.58997573  0.56565297  0.38865802     0.09100
H186        H  0.61655610  0.29709157  0.06376185     0.09090
H187        H  0.66084020  0.31951975  0.02629568     0.09090
H188        H  0.59845392  0.30134133  0.01191038     0.05860
C189        C  0.92024567  0.38183712  0.17349203    -0.19940
C190        C  0.87363104  0.40928108  0.17617072    -0.06510
C191        C  0.87145403  0.45874474  0.19580699     0.14360
C192        C  0.91558119  0.47807809  0.21321287    -0.20000
C193        C  0.96264573  0.44788889  0.21607523    -0.06510
C194        C  0.96431735  0.39987188  0.19204818     0.14350
C195        C  0.01087003  0.36662631  0.18241146    -0.23350
H196        H  0.92193060  0.34446122  0.15708833     0.15640
H197        H  0.91169094  0.51812344  0.22461850     0.15660
C198        C  0.82296897  0.49226669  0.19788474    -0.23290
H199        H  0.00451865  0.33631174  0.15874666     0.05880
H200        H  0.02236454  0.34298368  0.20884367     0.09100
H201        H  0.03968136  0.39186351  0.16921368     0.09100
H202        H  0.79419744  0.47150540  0.21575195     0.09090
H203        H  0.80852023  0.49988368  0.16707323     0.09090
H204        H  0.82838528  0.53135229  0.21259684     0.05860
C205        C  0.59018920  0.02178217  0.32411772    -0.19940
C206        C  0.63068102  0.03750058  0.01433172    -0.06510
C207        C  0.63066039  0.02461821  0.05561970     0.14360
C208        C  0.58877754  0.99999249  0.07230591    -0.20000
C209        C  0.54550928  0.98674482  0.04965359    -0.06510
C210        C  0.54991921  0.99312843  0.00668213     0.14350
C211        C  0.51900327  0.96677573  0.30800435    -0.23350
H212        H  0.59154558  0.02914293  0.29199951     0.15640
H213        H  0.58865835  0.99346461  0.10448145     0.15660
C214        C  0.67338224  0.03866527  0.08314650    -0.23290
H215        H  0.54527036  0.94814932  0.28550879     0.05880
H216        H  0.49483935  0.99683525  0.29211097     0.09100
H217        H  0.49666255  0.93341353  0.31789759     0.09100
H218        H  0.67856805  0.08228076  0.08264472     0.09090
H219        H  0.70882817  0.01716256  0.07351953     0.09090
H220        H  0.66596439  0.02723912  0.11481046     0.05860
C221        C  0.94646568  0.99099327  0.23183048    -0.19940
C222        C  0.94925731  0.00009868  0.18965985    -0.06510
C223        C  0.90635675  0.02821165  0.17222826     0.14360
C224        C  0.86665622  0.04805098  0.19665198    -0.20000
C225        C  0.86647897  0.04134018  0.23827109    -0.06510
C226        C  0.90625452  0.01124215  0.25596223     0.14350
C227        C  0.90525813  0.99764573  0.29995165    -0.23350
H228        H  0.97458006  0.96607687  0.24668450     0.15640
H229        H  0.83562135  0.07055072  0.18278090     0.15660
C230        C  0.89979040  0.03993153  0.12813522    -0.23290
H231        H  0.93665706  0.96910896  0.30763208     0.05880
H232        H  0.86924478  0.97861478  0.30759183     0.09100
H233        H  0.90909662  0.03410274  0.31841012     0.09100
H234        H  0.93237995  0.02770566  0.10985896     0.09090
H235        H  0.89392496  0.08350381  0.12371631     0.09090
H236        H  0.86630874  0.01946401  0.11656633     0.05860
C237        C  0.09524341  0.04681675  0.09874939    -0.19940
C238        C  0.07876988  0.10020321  0.10231650    -0.06510
C239        C  0.03727774  0.11299617  0.12781276     0.14360
C240        C  0.01227042  0.07209586  0.14719270    -0.20000
C241        C  0.02465169  0.01720975  0.14078830    -0.06510
C242        C  0.06987321  0.00550041  0.11770012     0.14350
C243        C  0.09272696  0.95041395  0.11077258    -0.23350
H244        H  0.12862561  0.03694202  0.08074480     0.15640
H245        H  0.98327379  0.08471369  0.16828685     0.15660
C246        C  0.01841826  0.16971253  0.13505932    -0.23290
H247        H  0.12807770  0.94528420  0.12841764     0.05880
H248        H  0.10209778  0.94455951  0.07842541     0.09100
H249        H  0.06702131  0.91893913  0.11854298     0.09100
H250        H  0.00857046  0.18896666  0.10599921     0.09090
H251        H  0.04779373  0.19233008  0.15068073     0.09090
H252        H  0.98395418  0.17198261  0.15430142     0.05860
C253        C  0.09006894  0.34434245  0.28123027    -0.19940
C254        C  0.07587314  0.34069587  0.32133511    -0.06510
C255        C  0.04561219  0.38194349  0.00475775     0.14360
C256        C  0.02689937  0.42319232  0.31308542    -0.20000
C257        C  0.03509243  0.42498965  0.27041979    -0.06510
C258        C  0.07547839  0.38790054  0.25708596     0.14350
C259        C  0.11150187  0.39219942  0.22143682    -0.23350
H260        H  0.11781610  0.31515980  0.26965170     0.15640
H261        H  0.01062907  0.45615432  0.99603656     0.15660
C262        C  0.03323146  0.38318233  0.04913505    -0.23290
H263        H  0.11311639  0.35428173  0.20411549     0.05880
H264        H  0.15019087  0.39828055  0.23305088     0.09100
H265        H  0.10464822  0.42344685  0.19945329     0.09100
H266        H  0.06824195  0.38757638  0.06689000     0.09090
H267        H  0.01503186  0.34579334  0.05784081     0.09090
H268        H  0.00682473  0.41697434  0.05717211     0.05860
C269        C  0.41169187  0.04352467  0.15308755    -0.19940
C270        C  0.43480216  0.09244491  0.15610083    -0.06510
C271        C  0.47932492  0.10022531  0.13396373     0.14360
C272        C  0.49720867  0.06066091  0.10711821    -0.20000
C273        C  0.47503934  0.01016890  0.10340650    -0.06510
C274        C  0.43038432  0.00256505  0.12753876     0.14350
C275        C  0.40026412  0.95251536  0.12708597    -0.23350
H276        H  0.37702524  0.03798535  0.16987118     0.15640
H277        H  0.52814943  0.07164403  0.08826221     0.15660
C278        C  0.50926541  0.14978556  0.13899927    -0.23290
H279        H  0.37200569  0.95217913  0.15190048     0.05880
H280        H  0.42472913  0.91634836  0.13101289     0.09100
H281        H  0.37823231  0.95025574  0.09895847     0.09100
H282        H  0.51773507  0.15593867  0.17134566     0.09090
H283        H  0.48789909  0.18497752  0.12706753     0.09090
H284        H  0.54596170  0.14673808  0.12260221     0.05860
C285        C  0.45517637  0.37803871  0.24329781    -0.19940
C286        C  0.43283771  0.33851470  0.26598128    -0.06510
C287        C  0.43338295  0.34233054  0.30821262     0.14360
C288        C  0.45577436  0.38566248  0.32638942    -0.20000
C289        C  0.47854722  0.42704561  0.30446826    -0.06510
C290        C  0.47835082  0.42195393  0.26108389     0.14350
C291        C  0.50019810  0.46035353  0.23131338    -0.23350
H292        H  0.45433673  0.37425707  0.21080937     0.15640
H293        H  0.45530424  0.38763791  0.02561677     0.15660
C294        C  0.40832679  0.30233168  0.33476865    -0.23290
H295        H  0.48834066  0.45185593  0.20006215     0.05880
H296        H  0.54187157  0.45524689  0.23040943     0.09100
H297        H  0.48724862  0.50200999  0.23691452     0.09100
H298        H  0.42768922  0.26266205  0.33132162     0.09090
H299        H  0.36778466  0.29990903  0.32667848     0.09090
H300        H  0.41005452  0.31337661  0.03375729     0.05860
C301        C  0.44083445  0.89170017  0.05043605    -0.19940
C302        C  0.45480046  0.94569839  0.04854482    -0.06510
C303        C  0.42243797  0.98102027  0.02522804     0.14360
C304        C  0.38059610  0.96103670  0.33796531    -0.20000
C305        C  0.36978621  0.90712730  0.00594177    -0.06510
C306        C  0.39999119  0.87225775  0.02922982     0.14350
C307        C  0.38816563  0.81410301  0.03276160    -0.23350
H308        H  0.46015175  0.86359361  0.06980606     0.15640
H309        H  0.35627880  0.98781121  0.32057424     0.15660
C310        C  0.42960992  0.04004255  0.35435056    -0.23290
H311        H  0.41552596  0.79194603  0.05229737     0.05880
H312        H  0.38957908  0.79511824  0.00256544     0.09100
H313        H  0.34981500  0.81025380  0.04591228     0.09100
H314        H  0.42801264  0.05134092  0.32212089     0.09090
H315        H  0.46623352  0.05309431  0.36551073     0.09090
H316        H  0.39871138  0.06232842  0.37057825     0.05860
C317        C  0.06274384  0.98018004  0.21624238    -0.19940
C318        C  0.03496583  0.94508904  0.19153706    -0.06510
C319        C  0.05049476  0.88919335  0.19333564     0.14360
C320        C  0.09131807  0.87325216  0.21791973    -0.20000
C321        C  0.11877871  0.90912669  0.24003047    -0.06510
C322        C  0.10451253  0.96321720  0.23945138     0.14350
C323        C  0.13292055  0.00290482  0.26369036    -0.23350
H324        H  0.05204413  0.02214968  0.21680781     0.15640
H325        H  0.10322636  0.83152765  0.21937722     0.15660
C326        C  0.02732772  0.84336037  0.17120778    -0.23290
H327        H  0.11638900  0.04390297  0.26043428     0.05880
H328        H  0.17293141  0.00296558  0.25346238     0.09100
H329        H  0.13168448  0.99208677  0.29602196     0.09100
H330        H  0.02353087  0.85040626  0.13861247     0.09090
H331        H  0.99140776  0.83317438  0.18593337     0.09090
H332        H  0.05108902  0.80607562  0.17294768     0.05860
C333        C  0.13120880  0.54034628  0.21420022    -0.19940
C334        C  0.12745597  0.54457234  0.17238123    -0.06730
C335        C  0.08468896  0.52445189  0.15302478     0.14360
C336        C  0.04690140  0.50076164  0.17614285    -0.20000
C337        C  0.05012026  0.49645571  0.21864136    -0.06510
C338        C  0.09381903  0.51753589  0.23774121     0.14350
C339        C  0.10267534  0.51752233  0.28282309    -0.23350
H340        H  0.16376697  0.55632715  0.22904073     0.15640
H341        H  0.01430026  0.48662981  0.16051613     0.15660
C342        C  0.07875525  0.52691613  0.10800676    -0.23290
H343        H  0.13541388  0.54158071  0.29119911     0.05880
H344        H  0.11211034  0.47688654  0.29370580     0.09100
H345        H  0.06993674  0.53504951  0.29960181     0.09100
H346        H  0.11197501  0.50681707  0.09314347     0.09090
H347        H  0.07524328  0.56898468  0.09812486     0.09090
H348        H  0.04436404  0.50680676  0.09779966     0.05860
C349        C  0.44859192  0.49188548  0.06616117    -0.19940
C350        C  0.44816483  0.49185939  0.02345463    -0.06510
C351        C  0.39997102  0.50452959  0.00517500     0.14360
C352        C  0.35999833  0.52603967  0.02869407    -0.20000
C353        C  0.36458782  0.53422967  0.07007880    -0.06510
C354        C  0.40882904  0.51485449  0.08936347     0.14350
C355        C  0.41449122  0.51752322  0.13440947    -0.23350
H356        H  0.48027413  0.47489611  0.08238315     0.15640
H357        H  0.32499564  0.53848481  0.01409269     0.15660
C358        C  0.38886327  0.49783285  0.29420364    -0.23290
H359        H  0.45038857  0.49771989  0.14444521     0.05880
H360        H  0.38275614  0.49738970  0.14922760     0.09100
H361        H  0.41512097  0.55957428  0.14451787     0.09100
H362        H  0.41825257  0.51557623  0.27544096     0.09090
H363        H  0.35242707  0.51783170  0.28548523     0.09090
H364        H  0.38506972  0.45521952  0.28681619     0.05860
O365        O  0.33024075  0.59241465  0.45573159    -0.57450
C366        C  0.25466276  0.71365963  0.51913570     0.75180
O367        O  0.20034755  0.69525106  0.40355874    -0.58610
C368        C  0.32324830  0.56549237  0.42405353     0.75150
C369        C  0.16841941  0.57274008  0.48479543     0.77540
Cd370      Cd  0.24622556  0.63884128  0.45406626     1.37470
O371        O  0.29336121  0.68626655  0.50783961    -0.57450
O372        O  0.21150330  0.57597547  0.50084330    -0.56260
C373        C  0.24059291  0.71057146  0.38719218     0.77500
O374        O  0.16207635  0.59738081  0.45191145    -0.58630
O375        O  0.21419962  0.70672447  0.50021599    -0.57080
O376        O  0.27947394  0.56968442  0.40882301    -0.57070
O377        O  0.28184701  0.69259139  0.40147798    -0.56250
O378        O  0.32988906  0.86388739  0.61774011    -0.57450
C379        C  0.25479424  0.75085662  0.55310069     0.75180
O380        O  0.20315865  0.77801246  0.34495769    -0.58610
C381        C  0.32558441  0.88655136  0.65174745     0.75150
C382        C  0.16332773  0.88701986  0.59478568     0.77540
Cd383      Cd  0.24722363  0.82180212  0.62156677     1.37460
O384        O  0.29473515  0.76675939  0.56929567    -0.57450
O385        O  0.20797296  0.89762317  0.58429654    -0.56260
C386        C  0.24069006  0.74751571  0.35339745     0.77500
O387        O  0.15852507  0.85113643  0.62099256    -0.58630
O388        O  0.21349716  0.76836307  0.56788236    -0.57080
O389        O  0.28318970  0.88458305  0.33603704    -0.57070
O390        O  0.27961705  0.75100898  0.66497599    -0.56250
O391        O  0.29371645  0.27031329  0.49165104    -0.57450
C392        C  0.40564585  0.29621243  0.57820643     0.75180
O393        O  0.29629402  0.17007137  0.59810218    -0.58610
C394        C  0.27426933  0.22891809  0.47759230     0.75150
C395        C  0.40772993  0.13606578  0.51185861     0.77540
Cd396      Cd  0.34178302  0.21856387  0.54439800     1.37460
O397        O  0.38301026  0.30495151  0.54518728    -0.57450
O398        O  0.41056191  0.18423202  0.50140775    -0.56260
C399        C  0.27251317  0.21161978  0.61057974     0.77500
O400        O  0.37735344  0.12675047  0.54039053    -0.58630
O401        O  0.40226599  0.25008877  0.59287777    -0.57080
O402        O  0.28584901  0.18538054  0.49448415    -0.57070
O403        O  0.28016760  0.25437886  0.59211207    -0.56250
O404        O  0.21770360  0.17039058  0.65804013    -0.57450
C405        C  0.10749251  0.14131477  0.41418552     0.75180
O406        O  0.21615558  0.27073881  0.43105464    -0.58610
C407        C  0.23822070  0.21186542  0.64515931     0.75150
C408        C  0.10150856  0.29790838  0.34490084     0.77540
Cd409      Cd  0.16991597  0.21983271  0.37889059     1.37460
O410        O  0.13550955  0.12990485  0.38403964    -0.57450
O411        O  0.10797207  0.25163203  0.66344268    -0.56260
C412        C  0.23992696  0.22928320  0.44339881     0.77500
O413        O  0.12277527  0.30668532  0.37826596    -0.58630
O414        O  0.10657999  0.18936762  0.42563350    -0.57080
O415        O  0.22758559  0.25496033  0.33011461    -0.57070
O416        O  0.23197601  0.18620482  0.42534944    -0.56250
O417        O  0.66349915  0.09535969  0.63009500    -0.57450
C418        C  0.73929619  0.21214094  0.56541918     0.75180
O419        O  0.79459973  0.18569009  0.34950485    -0.58610
C420        C  0.67137399  0.06819887  0.66171100     0.75150
C421        C  0.82470778  0.06826967  0.59477129     0.77540
Cd422      Cd  0.74714690  0.13683363  0.63025901     1.37460
O423        O  0.69961743  0.19136113  0.57871414    -0.57450
O424        O  0.78130740  0.07536837  0.57936540    -0.56260
C425        C  0.75492059  0.20852204  0.36380568     0.77500
O426        O  0.83105254  0.08883261  0.62919744    -0.58630
O427        O  0.78032152  0.19904614  0.58253944    -0.57080
O428        O  0.71541210  0.06973740  0.34292126    -0.57070
O429        O  0.71364120  0.19848635  0.68039238    -0.56250
O430        O  0.79391538  0.26917503  0.40901714    -0.57450
C431        C  0.82890840  0.38388929  0.49165068     0.75180
O432        O  0.66181090  0.36283462  0.46265436    -0.58610
C433        C  0.75516670  0.24487279  0.39820475     0.75150
C434        C  0.73955340  0.24873214  0.53126912     0.77540
Cd435      Cd  0.74760091  0.31976098  0.46381839     1.37460
O436        O  0.83393177  0.35179147  0.46232295    -0.57450
O437        O  0.78010703  0.25545772  0.51217220    -0.56260
C438        C  0.66832452  0.38610151  0.42938357     0.77500
O439        O  0.70071255  0.27505261  0.51946228    -0.58630
O440        O  0.78462191  0.39011693  0.50606391    -0.57080
O441        O  0.71512449  0.25414214  0.41815246    -0.57070
O442        O  0.71265179  0.38410185  0.41482490    -0.56250
O443        O  0.71112795  0.77056086  0.59594253    -0.57450
C444        C  0.59724680  0.79565668  0.50785528     0.75180
O445        O  0.71484856  0.67061062  0.49032210    -0.58610
C446        C  0.73257833  0.72878287  0.61004282     0.75150
C447        C  0.60401847  0.63908152  0.57508826     0.77540
Cd448      Cd  0.66579538  0.71953783  0.54343267     1.37470
O449        O  0.61810986  0.80548210  0.54121854    -0.57450
O450        O  0.59941883  0.68717932  0.58651277    -0.56260
C451        C  0.73533951  0.71225186  0.47782841     0.77500
O452        O  0.63455816  0.62914580  0.54631108    -0.58630
O453        O  0.60474133  0.74923378  0.49362073    -0.57080
O454        O  0.72319771  0.68525358  0.59322260    -0.57070
O455        O  0.72470365  0.75518495  0.49631779    -0.56250
O456        O  0.87459827  0.80784267  0.37403547    -0.57450
C457        C  0.76671325  0.72883919  0.64430238     0.75180
O458        O  0.87600735  0.62908766  0.37524743    -0.58610
C459        C  0.89542939  0.80246945  0.40810787     0.75150
C460        C  0.76914985  0.71238731  0.44315757     0.77540
Cd461      Cd  0.83635472  0.71988051  0.37628804     1.37460
O462        O  0.78836551  0.76995437  0.65641492    -0.57450
O463        O  0.77637519  0.75535358  0.42487103    -0.56260
C464        C  0.90323708  0.63740410  0.34464919     0.77500
O465        O  0.79250179  0.67087814  0.43016574    -0.58630
O466        O  0.77658375  0.68600763  0.32943734    -0.57080
O467        O  0.89359128  0.75719634  0.42447431    -0.57070
O468        O  0.90303857  0.68500713  0.66556103    -0.56250
C469        C  0.99386082  0.97352679  0.49661301    -0.02130
C470        C  0.00760953  0.47073465  0.57666985    -0.02130
C471        C  0.49959425  0.96516654  0.40821448    -0.02130
C472        C  0.49701768  0.47428751  0.66511041    -0.02130
C473        C  0.96385637  0.60969208  0.62474162    -0.19940
C474        C  0.93164652  0.59425512  0.65565513    -0.06510
C475        C  0.92084227  0.53977837  0.32554542     0.14360
C476        C  0.94391421  0.50293383  0.63195860    -0.20000
C477        C  0.98145614  0.51690340  0.60356168    -0.06510
C478        C  0.98463489  0.57333830  0.59662615     0.14350
C479        C  0.99791152  0.59790340  0.55656893    -0.23350
H480        H  0.96933629  0.65174917  0.62009109     0.15640
H481        H  0.93322256  0.46177527  0.30016581     0.15660
C482        C  0.88426553  0.51975224  0.35641071    -0.23290
H483        H  0.98167795  0.63911409  0.55365087     0.05880
H484        H  0.98093522  0.57552005  0.53158625     0.09100
H485        H  0.03916702  0.60142071  0.55290340     0.09100
H486        H  0.84607213  0.53831655  0.35154476     0.09090
H487        H  0.89767420  0.52926516  0.38710722     0.09090
H488        H  0.88081388  0.47591478  0.35458480     0.05860
C489        C  0.94678599  0.88314895  0.40699401    -0.19940
C490        C  0.91846296  0.84745146  0.42887957    -0.06510
C491        C  0.90866038  0.85775375  0.46977628     0.14360
C492        C  0.93197445  0.90004377  0.48855012    -0.20000
C493        C  0.96590303  0.93361136  0.46842360    -0.06510
C494        C  0.96828949  0.92773836  0.42513795     0.14350
C495        C  0.98794561  0.96656083  0.39465951    -0.23350
H496        H  0.95077091  0.87707308  0.37477920     0.15640
H497        H  0.92631346  0.90404975  0.52066314     0.15660
C498        C  0.87353852  0.82440215  0.49423157    -0.23290
H499        H  0.95768255  0.97494567  0.37254041     0.05880
H500        H  0.02108318  0.94857802  0.37834720     0.09100
H501        H  0.99651901  0.00636078  0.40525153     0.09100
H502        H  0.88946136  0.78314258  0.49692511     0.09090
H503        H  0.83586435  0.82397437  0.47967563     0.09090
H504        H  0.86792038  0.84026766  0.52521380     0.05860
C505        C  0.53034005  0.61186859  0.61461677    -0.19940
C506        C  0.57580375  0.59709027  0.59555641    -0.06510
C507        C  0.59541133  0.54472030  0.60004147     0.14360
C508        C  0.56827849  0.50850984  0.62269820    -0.20000
C509        C  0.52055333  0.52116450  0.64079523    -0.06510
C510        C  0.50271732  0.57629185  0.63788999     0.14350
C511        C  0.45697715  0.60241330  0.65879781    -0.23350
H512        H  0.51639261  0.65274042  0.61148047     0.15640
H513        H  0.58422245  0.46839750  0.62511489     0.15660
C514        C  0.64561492  0.52654892  0.58199648    -0.23290
H515        H  0.45878535  0.64649741  0.65910197     0.05880
H516        H  0.45397798  0.59227036  0.69092939     0.09100
H517        H  0.42196251  0.59476893  0.64221155     0.09100
H518        H  0.67598854  0.55196736  0.59324838     0.09090
H519        H  0.64381475  0.52873233  0.54870366     0.09090
H520        H  0.65601157  0.48471371  0.58997615     0.05860
C521        C  0.57319627  0.83411959  0.44252454    -0.19940
C522        C  0.56925008  0.83699678  0.48438724    -0.06510
C523        C  0.54296916  0.88073826  0.50201806     0.14360
C524        C  0.52248607  0.92112634  0.47734634    -0.20000
C525        C  0.52432195  0.91861480  0.43455509    -0.06510
C526        C  0.55272942  0.87403914  0.41739515     0.14350
C527        C  0.56401791  0.86712291  0.37293829    -0.23350
H528        H  0.59475701  0.80096213  0.42924398     0.15640
H529        H  0.50573063  0.95505339  0.49281997     0.15660
C530        C  0.53527043  0.88479556  0.54688338    -0.23290
H531        H  0.58413699  0.82852361  0.36625881     0.05880
H532        H  0.58960143  0.89790267  0.36225654     0.09100
H533        H  0.52919174  0.86704094  0.35498670     0.09100
H534        H  0.57206449  0.88965568  0.56202790     0.09090
H535        H  0.51740448  0.84840021  0.55814727     0.09090
H536        H  0.51006156  0.91942659  0.55523135     0.05860
C537        C  0.60883995  0.46150370  0.41131621    -0.19940
C538        C  0.62539606  0.40868482  0.40608956    -0.06510
C539        C  0.60253015  0.37757063  0.37676355     0.14360
C540        C  0.56291595  0.39955780  0.35376684    -0.20000
C541        C  0.54207641  0.45212554  0.35989042    -0.06510
C542        C  0.56853227  0.48400182  0.38863057     0.14350
C543        C  0.55688757  0.54203783  0.39703251    -0.23350
H544        H  0.62790511  0.48572946  0.43316989     0.15640
H545        H  0.55037341  0.37464910  0.32968550     0.15660
C546        C  0.62055056  0.32068151  0.36916050    -0.23290
H547        H  0.54873005  0.54789443  0.42958251     0.05880
H548        H  0.52409738  0.55798219  0.38079405     0.09100
H549        H  0.58997461  0.56565245  0.72199447     0.09100
H550        H  0.61657010  0.29709499  0.39708896     0.09090
H551        H  0.66084993  0.31952578  0.35962050     0.09090
H552        H  0.59846447  0.30134131  0.34523813     0.05860
C553        C  0.92024778  0.38184304  0.50682362    -0.19940
C554        C  0.87363391  0.40928868  0.50950117    -0.06510
C555        C  0.87145770  0.45875223  0.52913764     0.14360
C556        C  0.91558489  0.47808389  0.54654464    -0.20000
C557        C  0.96264840  0.44789304  0.54940800    -0.06510
C558        C  0.96431934  0.39987608  0.52538091     0.14350
C559        C  0.01087132  0.36662890  0.51574522    -0.23350
H560        H  0.92193215  0.34446715  0.49041993     0.15640
H561        H  0.91169551  0.51812925  0.55795039     0.15660
C562        C  0.82297355  0.49227577  0.53121456    -0.23290
H563        H  0.00451969  0.33631399  0.49208071     0.05880
H564        H  0.02236468  0.34298655  0.54217786     0.09100
H565        H  0.03968350  0.39186506  0.50254746     0.09100
H566        H  0.79420080  0.47151537  0.54908112     0.09090
H567        H  0.80852602  0.49989346  0.50040280     0.09090
H568        H  0.82839060  0.53136103  0.54592696     0.05860
C569        C  0.59018308  0.02179197  0.65744845    -0.19940
C570        C  0.63068211  0.03749766  0.34766813    -0.06510
C571        C  0.63066067  0.02461448  0.38895594     0.14360
C572        C  0.58877706  0.99998942  0.40564147    -0.20000
C573        C  0.54550882  0.98674299  0.38298860    -0.06510
C574        C  0.54991948  0.99312729  0.34001727     0.14350
C575        C  0.51899703  0.96678504  0.64133642    -0.23350
H576        H  0.59153807  0.02915350  0.62533031     0.15640
H577        H  0.58865730  0.99346109  0.43781695     0.15660
C578        C  0.67338248  0.03865995  0.41648328    -0.23290
H579        H  0.54526342  0.94815929  0.61884000     0.05880
H580        H  0.49483210  0.99684437  0.62544378     0.09100
H581        H  0.49665721  0.93342234  0.65123010     0.09100
H582        H  0.67856908  0.08227532  0.41598223     0.09090
H583        H  0.70882815  0.01715679  0.40685625     0.09090
H584        H  0.66596407  0.02723311  0.44814701     0.05860
C585        C  0.94645953  0.99099452  0.56516507    -0.19940
C586        C  0.94925349  0.00009900  0.52299445    -0.06510
C587        C  0.90635430  0.02821236  0.50556109     0.14360
C588        C  0.86665316  0.04805361  0.52998335    -0.20000
C589        C  0.86647386  0.04134411  0.57160255    -0.06510
C590        C  0.90624760  0.01124502  0.58929529     0.14350
C591        C  0.90524833  0.99764918  0.63328479    -0.23350
H592        H  0.97457276  0.96607787  0.58002021     0.15640
H593        H  0.83561955  0.07055388  0.51611101     0.15660
C594        C  0.89979029  0.03993111  0.46146766    -0.23290
H595        H  0.93664530  0.96911060  0.64096629     0.05880
H596        H  0.86923355  0.97862041  0.64092396     0.09100
H597        H  0.90908785  0.03410605  0.65174324     0.09100
H598        H  0.93238033  0.02770369  0.44319246     0.09090
H599        H  0.89392624  0.08350338  0.45704786     0.09090
H600        H  0.86630857  0.01946427  0.44989815     0.05860
C601        C  0.09524338  0.04681583  0.43208806    -0.19940
C602        C  0.07876890  0.10020218  0.43565375    -0.06510
C603        C  0.03727620  0.11299548  0.46114929     0.14360
C604        C  0.01226877  0.07209542  0.48052937    -0.20000
C605        C  0.02465036  0.01720922  0.47412559    -0.06510
C606        C  0.06987305  0.00549971  0.45103895     0.14350
C607        C  0.09272784  0.95041327  0.44411320    -0.23350
H608        H  0.12862632  0.03694100  0.41408435     0.15640
H609        H  0.98327169  0.08471358  0.50162302     0.15660
C610        C  0.01841620  0.16971189  0.46839482    -0.23290
H611        H  0.12807696  0.94528418  0.46176037     0.05880
H612        H  0.10210174  0.94455823  0.41176663     0.09100
H613        H  0.06702164  0.91893832  0.45188231     0.09100
H614        H  0.00856863  0.18896514  0.43933433     0.09090
H615        H  0.04779130  0.19233013  0.48401608     0.09090
H616        H  0.98395186  0.17198220  0.48763663     0.05860
C617        C  0.09006996  0.34434416  0.61456373    -0.19940
C618        C  0.07587363  0.34069744  0.65466843    -0.06510
C619        C  0.04561293  0.38194218  0.33809092     0.14360
C620        C  0.02690016  0.42319398  0.64641865    -0.20000
C621        C  0.03509403  0.42499172  0.60375313    -0.06510
C622        C  0.07547991  0.38790241  0.59041945     0.14350
C623        C  0.11150360  0.39220094  0.55477041    -0.23350
H624        H  0.11781718  0.31516147  0.60298528     0.15640
H625        H  0.01063107  0.45615358  0.32936924     0.15660
C626        C  0.03323291  0.38318220  0.38246833    -0.23290
H627        H  0.11311780  0.35428324  0.53744908     0.05880
H628        H  0.15019262  0.39828167  0.56638456     0.09100
H629        H  0.10465030  0.42344842  0.53278685     0.09100
H630        H  0.06824377  0.38757607  0.40022285     0.09090
H631        H  0.01503287  0.34579373  0.39117477     0.09090
H632        H  0.00682680  0.41697481  0.39050524     0.05860
C633        C  0.41169053  0.04352453  0.48642121    -0.19940
C634        C  0.43480165  0.09244429  0.48943482    -0.06510
C635        C  0.47932516  0.10022372  0.46729853     0.14360
C636        C  0.49720866  0.06065916  0.44045309    -0.20000
C637        C  0.47503851  0.01016761  0.43674096    -0.06510
C638        C  0.43038292  0.00256453  0.46087272     0.14350
C639        C  0.40026204  0.95251532  0.46041963    -0.23350
H640        H  0.37702337  0.03798593  0.50320433     0.15640
H641        H  0.52814998  0.07164184  0.42159751     0.15660
C642        C  0.50926674  0.14978307  0.47233495    -0.23290
H643        H  0.37200322  0.95217955  0.48523388     0.05880
H644        H  0.42472654  0.91634799  0.46434679     0.09100
H645        H  0.37823060  0.95025600  0.43229192     0.09100
H646        H  0.51773566  0.15593556  0.50468154     0.09090
H647        H  0.48790161  0.18497572  0.46040309     0.09090
H648        H  0.54596345  0.14673478  0.45593853     0.05860
C649        C  0.45517592  0.37804120  0.57663073    -0.19940
C650        C  0.43283739  0.33851684  0.59931393    -0.06510
C651        C  0.43338217  0.34233243  0.64154528     0.14360
C652        C  0.45577337  0.38566423  0.65972238    -0.20000
C653        C  0.47854651  0.42704748  0.63780157    -0.06510
C654        C  0.47835013  0.42195638  0.59441714     0.14350
C655        C  0.50019709  0.46035650  0.56464682    -0.23350
H656        H  0.45433645  0.37425983  0.54414228     0.15640
H657        H  0.45530925  0.38762469  0.35894921     0.15660
C658        C  0.40832578  0.30233338  0.66810102    -0.23290
H659        H  0.48833845  0.45186000  0.53339569     0.05880
H660        H  0.54187051  0.45524928  0.56374212     0.09100
H661        H  0.48724849  0.50201302  0.57024870     0.09100
H662        H  0.42768841  0.26266383  0.66465410     0.09090
H663        H  0.36778379  0.29991059  0.66001048     0.09090
H664        H  0.41007039  0.31335606  0.36709318     0.05860
C665        C  0.44083278  0.89169942  0.38377005    -0.19940
C666        C  0.45479935  0.94569747  0.38187890    -0.06510
C667        C  0.42243732  0.98101965  0.35856198     0.14360
C668        C  0.38059220  0.96104370  0.67129909    -0.20000
C669        C  0.36978536  0.90712705  0.33927506    -0.06510
C670        C  0.39998972  0.87225731  0.36256344     0.14350
C671        C  0.38816359  0.81410271  0.36609526    -0.23350
H672        H  0.46014952  0.86359269  0.40314027     0.15640
H673        H  0.35627456  0.98781767  0.65390785     0.15660
C674        C  0.42960468  0.04005068  0.68768450    -0.23290
H675        H  0.41552336  0.79194559  0.38563142     0.05880
H676        H  0.38957745  0.79511774  0.33589918     0.09100
H677        H  0.34981268  0.81025396  0.37924551     0.09100
H678        H  0.42800741  0.05134924  0.65545487     0.09090
H679        H  0.46622789  0.05310320  0.69884504     0.09090
H680        H  0.39870560  0.06233580  0.70391209     0.05860
C681        C  0.06273906  0.98017977  0.54958076    -0.19940
C682        C  0.03496172  0.94508876  0.52487497    -0.06510
C683        C  0.05049042  0.88919305  0.52667405     0.14360
C684        C  0.09131369  0.87325199  0.55125821    -0.20000
C685        C  0.11877454  0.90912665  0.57336862    -0.06510
C686        C  0.10450794  0.96321711  0.57278971     0.14350
C687        C  0.13291582  0.00290488  0.59702865    -0.23350
H688        H  0.05203923  0.02214938  0.55014610     0.15640
H689        H  0.10322211  0.83152752  0.55271569     0.15660
C690        C  0.02732337  0.84336001  0.50454634    -0.23290
H691        H  0.11638387  0.04390290  0.59377279     0.05880
H692        H  0.17292656  0.00296614  0.58680046     0.09100
H693        H  0.13168012  0.99208664  0.62936022     0.09100
H694        H  0.02352856  0.85040513  0.47195077     0.09090
H695        H  0.99140236  0.83317558  0.51927097     0.09090
H696        H  0.05108350  0.80607460  0.50628767     0.05860
C697        C  0.13121280  0.54034743  0.54753488    -0.19940
C698        C  0.12746016  0.54457434  0.50571592    -0.06730
C699        C  0.08469305  0.52445458  0.48635913     0.14360
C700        C  0.04690509  0.50076454  0.50947684    -0.20000
C701        C  0.05012355  0.49645811  0.55197532    -0.06510
C702        C  0.09382258  0.51753718  0.57107553     0.14350
C703        C  0.10267857  0.51752276  0.61615745    -0.23350
H704        H  0.16377112  0.55632756  0.56237565     0.15640
H705        H  0.01430396  0.48663326  0.49384981     0.15660
C706        C  0.07875954  0.52691938  0.44134110    -0.23290
H707        H  0.13541740  0.54158050  0.62453384     0.05880
H708        H  0.11211293  0.47688667  0.62703985     0.09100
H709        H  0.06994005  0.53505012  0.63293616     0.09100
H710        H  0.11197923  0.50682024  0.42647777     0.09090
H711        H  0.07524785  0.56898806  0.43145946     0.09090
H712        H  0.04436825  0.50681037  0.43113373     0.05860
C713        C  0.44859288  0.49188078  0.39949164    -0.19940
C714        C  0.44816108  0.49184814  0.35678513    -0.06510
C715        C  0.39996406  0.50451167  0.33850847     0.14360
C716        C  0.35999363  0.52602478  0.36202869    -0.20000
C717        C  0.36458877  0.53422455  0.40341195    -0.06510
C718        C  0.40883316  0.51485447  0.42269485     0.14350
C719        C  0.41450274  0.51753444  0.46773986    -0.23350
H720        H  0.48027681  0.47489406  0.41571291     0.15640
H721        H  0.32498833  0.53846490  0.34742905     0.15660
C722        C  0.38886428  0.49783804  0.62753630    -0.23290
H723        H  0.45040237  0.49773487  0.47777459     0.05880
H724        H  0.38277070  0.49740366  0.48256445     0.09100
H725        H  0.41513312  0.55958809  0.47784202     0.09100
H726        H  0.41825411  0.51558203  0.60877458     0.09090
H727        H  0.35242843  0.51783761  0.61881785     0.09090
H728        H  0.38507053  0.45522509  0.62014768     0.05860
O729        O  0.33023868  0.59241237  0.78906552    -0.57450
C730        C  0.25466144  0.71365768  0.85246908     0.75180
O731        O  0.20034656  0.69524932  0.73689119    -0.58610
C732        C  0.32324647  0.56549086  0.75738705     0.75150
C733        C  0.16841700  0.57273987  0.81812898     0.77540
Cd734      Cd  0.24622390  0.63884000  0.78739949     1.37470
O735        O  0.29336001  0.68626539  0.84117224    -0.57450
O736        O  0.21150096  0.57597487  0.83417681    -0.56260
C737        C  0.24059210  0.71057122  0.72052582     0.77500
O738        O  0.16207423  0.59738031  0.78524484    -0.58630
O739        O  0.21419789  0.70672198  0.83355007    -0.57080
O740        O  0.27947233  0.56968345  0.74215618    -0.57070
O741        O  0.28184604  0.69259213  0.73481255    -0.56250
O742        O  0.32989201  0.86388098  0.95107311    -0.57450
C743        C  0.25479340  0.75085456  0.88643403     0.75180
O744        O  0.20315724  0.77801082  0.67829033    -0.58610
C745        C  0.32558800  0.88654595  0.98508009     0.75150
C746        C  0.16333078  0.88702073  0.92811705     0.77540
Cd747      Cd  0.24722439  0.82180091  0.95489939     1.37460
O748        O  0.29473463  0.76675885  0.90262756    -0.57450
O749        O  0.20797636  0.89762179  0.91762737    -0.56260
C750        C  0.24068959  0.74751610  0.68673140     0.77500
O751        O  0.15852697  0.85113905  0.95432512    -0.58630
O752        O  0.21349655  0.76835958  0.90121702    -0.57080
O753        O  0.28318795  0.88458368  0.66937294    -0.57070
O754        O  0.27961528  0.75100697  0.99830846    -0.56250
O755        O  0.29371767  0.27032433  0.82498307    -0.57450
C756        C  0.40564696  0.29622730  0.91153874     0.75180
O757        O  0.29629762  0.17008178  0.93143411    -0.58610
C758        C  0.27427112  0.22892824  0.81092527     0.75150
C759        C  0.40773184  0.13607739  0.84519178     0.77540
Cd760      Cd  0.34178543  0.21857680  0.87773067     1.37460
O761        O  0.38301081  0.30496667  0.87851988    -0.57450
O762        O  0.41056393  0.18424327  0.83473989    -0.56260
C763        C  0.27251534  0.21162882  0.94391248     0.77500
O764        O  0.37735607  0.12676337  0.87372440    -0.58630
O765        O  0.40226850  0.25010309  0.92620937    -0.57080
O766        O  0.28585166  0.18539151  0.82781789    -0.57070
O767        O  0.28016885  0.25438898  0.92544591    -0.56250
O768        O  0.21770529  0.17039520  0.99137030    -0.57450
C769        C  0.10749533  0.14131718  0.74751836     0.75180
O770        O  0.21615680  0.27074592  0.76438660    -0.58610
C771        C  0.23822217  0.21187141  0.97849165     0.75150
C772        C  0.10150921  0.29791029  0.67823428     0.77540
Cd773      Cd  0.16991786  0.21983635  0.71222407     1.37460
O774        O  0.13551299  0.12990785  0.71737275    -0.57450
O775        O  0.10797153  0.25163241  0.99677538    -0.56260
C776        C  0.23992852  0.22929123  0.77673200     0.77500
O777        O  0.12277542  0.30668760  0.71159953    -0.58630
O778        O  0.10658214  0.18936992  0.75896663    -0.57080
O779        O  0.22758534  0.25496417  0.66344649    -0.57070
O780        O  0.23197778  0.18621177  0.75868408    -0.56250
O781        O  0.66350303  0.09535191  0.96342761    -0.57450
C782        C  0.73929711  0.21213633  0.89875196     0.75180
O783        O  0.79459535  0.18569642  0.68283393    -0.58610
C784        C  0.67137752  0.06819328  0.99504471     0.75150
C785        C  0.82471078  0.06826656  0.92810362     0.77540
Cd786      Cd  0.74714920  0.13682908  0.96359189     1.37460
O787        O  0.69961834  0.19135864  0.91204896    -0.57450
O788        O  0.78130979  0.07536346  0.91269843    -0.56260
C789        C  0.75491624  0.20852632  0.69713652     0.77500
O790        O  0.83105594  0.08883051  0.96252938    -0.58630
O791        O  0.78032330  0.19903912  0.91587002    -0.57080
O792        O  0.71540772  0.06974388  0.67624883    -0.57070
O793        O  0.71364330  0.19848461  0.01372303    -0.56250
O794        O  0.79391163  0.26917767  0.74234879    -0.57450
C795        C  0.82890611  0.38388736  0.82498587     0.75180
O796        O  0.66180659  0.36282770  0.79598730    -0.58610
C797        C  0.75516304  0.24487501  0.73153674     0.75150
C798        C  0.73955320  0.24872815  0.86460222     0.77540
Cd799      Cd  0.74759864  0.31975938  0.79715272     1.37460
O800        O  0.83392963  0.35178963  0.79565810    -0.57450
O801        O  0.78010525  0.25545055  0.84550232    -0.56260
C802        C  0.66832142  0.38609970  0.76271876     0.77500
O803        O  0.70071300  0.27505270  0.85279886    -0.58630
O804        O  0.78461955  0.39011476  0.83939905    -0.57080
O805        O  0.71512161  0.25414201  0.75148594    -0.57070
O806        O  0.71264986  0.38410502  0.74816231    -0.56250
O807        O  0.71112905  0.77056769  0.92927365    -0.57450
C808        C  0.59724570  0.79566455  0.84118640     0.75180
O809        O  0.71484467  0.67061745  0.82365198    -0.58610
C810        C  0.73257624  0.72878876  0.94337530     0.75150
C811        C  0.60402079  0.63908905  0.90842229     0.77540
Cd812      Cd  0.66579495  0.71954549  0.87676387     1.37470
O813        O  0.61810902  0.80548985  0.87454956    -0.57450
O814        O  0.59941905  0.68718776  0.91984432    -0.56260
C815        C  0.73533996  0.71225728  0.81116038     0.77500
O816        O  0.63456049  0.62915223  0.87964529    -0.58630
O817        O  0.60474039  0.74924171  0.82695174    -0.57080
O818        O  0.72319369  0.68525974  0.92655555    -0.57070
O819        O  0.72470800  0.75518996  0.82965154    -0.56250
O820        O  0.87459918  0.80784440  0.70736719    -0.57450
C821        C  0.76670991  0.72884357  0.97763570     0.75180
O822        O  0.87600916  0.62908984  0.70858079    -0.58610
C823        C  0.89543144  0.80247062  0.74143911     0.75150
C824        C  0.76915064  0.71239167  0.77648973     0.77540
Cd825      Cd  0.83635573  0.71988239  0.70962015     1.37460
O826        O  0.78836459  0.76995734  0.98974805    -0.57450
O827        O  0.77637928  0.75535811  0.75820443    -0.56260
C828        C  0.90323871  0.63740609  0.67798239     0.77500
O829        O  0.79249949  0.67088129  0.76349675    -0.58630
O830        O  0.77658465  0.68600897  0.66277003    -0.57080
O831        O  0.89359381  0.75719731  0.75780532    -0.57070
O832        O  0.90303507  0.68500753  0.99889529    -0.56250
C833        C  0.99386419  0.97352726  0.82994389    -0.02130
C834        C  0.00760709  0.47073504  0.91000394    -0.02130
C835        C  0.49959143  0.96517549  0.74154721    -0.02130
C836        C  0.49702273  0.47429604  0.99844822    -0.02130
C837        C  0.96385200  0.60969239  0.95807509    -0.19940
C838        C  0.93164232  0.59425529  0.98898866    -0.06510
C839        C  0.92084364  0.53978065  0.65887818     0.14360
C840        C  0.94391173  0.50293378  0.96529288    -0.20000
C841        C  0.98145339  0.51690364  0.93689581    -0.06510
C842        C  0.98463119  0.57333860  0.92995991     0.14350
C843        C  0.99790771  0.59790358  0.88990261    -0.23350
H844        H  0.96933131  0.65174954  0.95342429     0.15640
H845        H  0.93322367  0.46177797  0.63349780     0.15660
C846        C  0.88426543  0.51975452  0.68974234    -0.23290
H847        H  0.98167402  0.63911419  0.88698441     0.05880
H848        H  0.98093148  0.57552001  0.86492002     0.09100
H849        H  0.03916319  0.60142108  0.88623705     0.09100
H850        H  0.84607252  0.53831975  0.68487582     0.09090
H851        H  0.89767321  0.52926642  0.72043930     0.09090
H852        H  0.88081303  0.47591720  0.68791570     0.05860
C853        C  0.94678819  0.88314999  0.74032496    -0.19940
C854        C  0.91846561  0.84745228  0.76221070    -0.06510
C855        C  0.90866410  0.85775393  0.80310764     0.14360
C856        C  0.93197856  0.90004369  0.82188140    -0.20000
C857        C  0.96590642  0.93361176  0.80175457    -0.06510
C858        C  0.96829218  0.92773916  0.75846887     0.14350
C859        C  0.98794843  0.96656162  0.72799047    -0.23350
H860        H  0.95077245  0.87707444  0.70811007     0.15640
H861        H  0.92631838  0.90404919  0.85399452     0.15660
C862        C  0.87354289  0.82440197  0.82756327    -0.23290
H863        H  0.95768570  0.97494644  0.70587107     0.05880
H864        H  0.02108617  0.94857883  0.71167836     0.09100
H865        H  0.99652160  0.00636159  0.73858260     0.09100
H866        H  0.88946584  0.78314237  0.83025626     0.09090
H867        H  0.83586834  0.82397437  0.81300795     0.09090
H868        H  0.86792555  0.84026704  0.85854570     0.05860
C869        C  0.53034547  0.61187683  0.94795441    -0.19940
C870        C  0.57580844  0.59709825  0.92889319    -0.06510
C871        C  0.59541815  0.54472943  0.93338094     0.14360
C872        C  0.56828650  0.50851943  0.95603926    -0.20000
C873        C  0.52056079  0.52117374  0.97413536    -0.06510
C874        C  0.50272525  0.57630143  0.97123060     0.14350
C875        C  0.45698906  0.60242563  0.99214235    -0.23350
H876        H  0.51639688  0.65274814  0.94481709     0.15640
H877        H  0.58423136  0.46840758  0.95845722     0.15660
C878        C  0.64562235  0.52655878  0.91533668    -0.23290
H879        H  0.45880514  0.64650908  0.99245254     0.05880
H880        H  0.45398816  0.59227689  0.02427265     0.09100
H881        H  0.42197257  0.59479148  0.97555518     0.09100
H882        H  0.67599487  0.55197971  0.92658718     0.09090
H883        H  0.64382200  0.52873918  0.88204375     0.09090
H884        H  0.65602072  0.48472472  0.92331848     0.05860
C885        C  0.57319493  0.83412861  0.77585598    -0.19940
C886        C  0.56924844  0.83700474  0.81771867    -0.06510
C887        C  0.54296636  0.88074521  0.83534989     0.14360
C888        C  0.52248298  0.92113378  0.81067867    -0.20000
C889        C  0.52431963  0.91862355  0.76788744    -0.06510
C890        C  0.55272740  0.87404833  0.75072702     0.14350
C891        C  0.56401502  0.86713246  0.70626999    -0.23350
H892        H  0.59475618  0.80097175  0.76257509     0.15640
H893        H  0.50572635  0.95505991  0.82615268     0.15660
C894        C  0.53526667  0.88480075  0.88021514    -0.23290
H895        H  0.58413395  0.82853320  0.69959011     0.05880
H896        H  0.58959831  0.89791227  0.69558796     0.09100
H897        H  0.52918839  0.86705059  0.68831893     0.09100
H898        H  0.57206048  0.88966030  0.89536011     0.09090
H899        H  0.51740068  0.84840485  0.89147796     0.09090
H900        H  0.51005758  0.91943141  0.88856360     0.05860
C901        C  0.60883787  0.46150260  0.74465125    -0.19940
C902        C  0.62539350  0.40868362  0.73942443    -0.06510
C903        C  0.60252807  0.37757021  0.71009768     0.14360
C904        C  0.56291471  0.39955823  0.68710048    -0.20000
C905        C  0.54207540  0.45212599  0.69322440    -0.06510
C906        C  0.56853080  0.48400144  0.72196535     0.14350
C907        C  0.55688613  0.54203721  0.73036800    -0.23350
H908        H  0.62790276  0.48572780  0.76650546     0.15640
H909        H  0.55037256  0.37465021  0.66301858     0.15660
C910        C  0.62054841  0.32068119  0.70249413    -0.23290
H911        H  0.54872771  0.54789298  0.76291795     0.05880
H912        H  0.52409652  0.55798202  0.71412917     0.09100
H913        H  0.58998236  0.56565220  0.05533747     0.09100
H914        H  0.61656695  0.29709397  0.73042214     0.09090
H915        H  0.66084809  0.31952553  0.69295496     0.09090
H916        H  0.59846298  0.30134176  0.67857100     0.05860
C917        C  0.92024564  0.38184208  0.84015846    -0.19940
C918        C  0.87363149  0.40928716  0.84283627    -0.06510
C919        C  0.87145499  0.45875085  0.86247255     0.14360
C920        C  0.91558215  0.47808317  0.87987914    -0.20000
C921        C  0.96264602  0.44789290  0.88274228    -0.06510
C922        C  0.96431722  0.39987582  0.85871533     0.14350
C923        C  0.01086949  0.36662926  0.84907932    -0.23350
H924        H  0.92193026  0.34446613  0.82375485     0.15640
H925        H  0.91169247  0.51812856  0.89128477     0.15660
C926        C  0.82297052  0.49227384  0.86454968    -0.23290
H927        H  0.00451795  0.33631424  0.82541488     0.05880
H928        H  0.02236345  0.34298708  0.87551189     0.09100
H929        H  0.03968121  0.39186581  0.83588135     0.09100
H930        H  0.79419818  0.47151318  0.88241648     0.09090
H931        H  0.80852261  0.49989122  0.83373799     0.09090
H932        H  0.82838730  0.53135926  0.87926193     0.05860
C933        C  0.59018812  0.02178387  0.99078188    -0.19940
C934        C  0.63067723  0.03750645  0.68099789    -0.06510
C935        C  0.63065779  0.02462194  0.72228547     0.14360
C936        C  0.58877479  0.99999684  0.73897191    -0.20000
C937        C  0.54550522  0.98675168  0.71632020    -0.06510
C938        C  0.54991408  0.99313670  0.67334878     0.14350
C939        C  0.51900306  0.96677573  0.97466974    -0.23350
H940        H  0.59154394  0.02914406  0.95866357     0.15640
H941        H  0.58865657  0.99346763  0.77114729     0.15660
C942        C  0.67338115  0.03866609  0.74981172    -0.23290
H943        H  0.54527019  0.94814938  0.95217421     0.05880
H944        H  0.49483852  0.99683457  0.95877620     0.09100
H945        H  0.49666293  0.93341331  0.98456342     0.09100
H946        H  0.67856828  0.08228138  0.74931111     0.09090
H947        H  0.70882611  0.01716267  0.74018335     0.09090
H948        H  0.66596414  0.02723853  0.78147551     0.05860
C949        C  0.94646357  0.99099415  0.89849631    -0.19940
C950        C  0.94925688  0.00009882  0.85632571    -0.06510
C951        C  0.90635706  0.02821151  0.83889271     0.14360
C952        C  0.86665572  0.04805165  0.86331527    -0.20000
C953        C  0.86647704  0.04134196  0.90493447    -0.06510
C954        C  0.90625165  0.01124383  0.92262687     0.14350
C955        C  0.90525349  0.99764824  0.96661641    -0.23350
H956        H  0.97457732  0.96607793  0.91335123     0.15640
H957        H  0.83562151  0.07055130  0.84944322     0.15660
C958        C  0.89979257  0.03993054  0.79479935    -0.23290
H959        H  0.93665171  0.96911107  0.97429780     0.05880
H960        H  0.86923957  0.97861804  0.97425599     0.09100
H961        H  0.90909192  0.03410547  0.98507463     0.09100
H962        H  0.93238281  0.02770418  0.77652397     0.09090
H963        H  0.89392748  0.08350275  0.79037984     0.09090
H964        H  0.86631129  0.01946296  0.78322983     0.05860
C965        C  0.09524629  0.04681785  0.76541963    -0.19940
C966        C  0.07877166  0.10020407  0.76898591    -0.06510
C967        C  0.03727854  0.11299672  0.79448118     0.14360
C968        C  0.01227107  0.07209620  0.81386063    -0.20000
C969        C  0.02465314  0.01721017  0.80745654    -0.06510
C970        C  0.06987595  0.00550128  0.78436988     0.14350
C971        C  0.09273099  0.95041507  0.77744360    -0.23350
H972        H  0.12862940  0.03694350  0.74741600     0.15640
H973        H  0.98327365  0.08471389  0.83495413     0.15660
C974        C  0.01841816  0.16971292  0.80172714    -0.23290
H975        H  0.12807998  0.94528573  0.79509092     0.05880
H976        H  0.10210518  0.94456072  0.74509702     0.09100
H977        H  0.06702480  0.91893990  0.78521219     0.09100
H978        H  0.00857086  0.18896662  0.77266676     0.09090
H979        H  0.04779294  0.19233105  0.81734888     0.09090
H980        H  0.98395358  0.17198272  0.82096867     0.05860
C981        C  0.09006955  0.34434548  0.94789715    -0.19940
C982        C  0.07587330  0.34069803  0.98800180    -0.06510
C983        C  0.04561318  0.38194360  0.67142413     0.14360
C984        C  0.02689838  0.42319383  0.97975252    -0.20000
C985        C  0.03509225  0.42499224  0.93708701    -0.06510
C986        C  0.07547869  0.38790368  0.92375309     0.14350
C987        C  0.11150195  0.39220273  0.88810382    -0.23350
H988        H  0.11781714  0.31516331  0.93631852     0.15640
H989        H  0.01063166  0.45615506  0.66270252     0.15660
C990        C  0.03323239  0.38318327  0.71580142    -0.23290
H991        H  0.11311651  0.35428502  0.87078251     0.05880
H992        H  0.15019099  0.39828408  0.89971772     0.09100
H993        H  0.10464804  0.42345000  0.86612023     0.09100
H994        H  0.06824290  0.38757714  0.73355637     0.09090
H995        H  0.01503230  0.34579467  0.72450749     0.09090
H996        H  0.00682605  0.41697573  0.72383818     0.05860
C997        C  0.41168913  0.04353628  0.81975382    -0.19940
C998        C  0.43480236  0.09245479  0.82276831    -0.06510
C999        C  0.47932706  0.10023214  0.80063318     0.14360
C1000       C  0.49720907  0.06066757  0.77378710    -0.20000
C1001       C  0.47503692  0.01017708  0.77007409    -0.06510
C1002       C  0.43038074  0.00257556  0.79420556     0.14350
C1003       C  0.40025849  0.95252732  0.79375250    -0.23350
H1004       H  0.37702119  0.03799919  0.83653628     0.15640
H1005       H  0.52815107  0.07164951  0.75493205     0.15660
C1006       C  0.50927163  0.14978900  0.80567193    -0.23290
H1007       H  0.37199953  0.95219251  0.81856668     0.05880
H1008       H  0.42472217  0.91635942  0.79767988     0.09100
H1009       H  0.37822707  0.95026839  0.76562476     0.09100
H1010       H  0.51773991  0.15593890  0.83801894     0.09090
H1011       H  0.48790905  0.18498382  0.79374096     0.09090
H1012       H  0.54596877  0.14673908  0.78927621     0.05860
C1013       C  0.45518064  0.37805431  0.90996524    -0.19940
C1014       C  0.43283758  0.33853156  0.93264717    -0.06510
C1015       C  0.43337832  0.34234744  0.97487851     0.14360
C1016       C  0.45577180  0.38567673  0.99305696    -0.20000
C1017       C  0.47855008  0.42705816  0.97113767    -0.06510
C1018       C  0.47835686  0.42196738  0.92775319     0.14350
C1019       C  0.50021051  0.46036517  0.89798452    -0.23350
H1020       H  0.45434380  0.37427295  0.87747672     0.15640
H1021       H  0.45530807  0.38762607  0.69228218     0.15660
C1022       C  0.40831505  0.30235148  0.00143271    -0.23290
H1023       H  0.48835549  0.45186933  0.86673236     0.05880
H1024       H  0.54188379  0.45525460  0.89708354     0.09100
H1025       H  0.48726403  0.50202259  0.90358535     0.09100
H1026       H  0.42767500  0.26268025  0.99798814     0.09090
H1027       H  0.36777387  0.29993198  0.99333868     0.09090
H1028       H  0.41006889  0.31335768  0.70042559     0.05860
C1029       C  0.44082969  0.89170782  0.71710431    -0.19940
C1030       C  0.45479588  0.94570597  0.71521249    -0.06510
C1031       C  0.42243314  0.98102755  0.69189570     0.14360
C1032       C  0.38059664  0.96103699  0.00463177    -0.20000
C1033       C  0.36978196  0.90713387  0.67260944    -0.06510
C1034       C  0.39998658  0.87226497  0.69589825     0.14350
C1035       C  0.38816093  0.81411030  0.69943089    -0.23350
H1036       H  0.46014684  0.86360147  0.73647457     0.15640
H1037       H  0.35627895  0.98781130  0.98724086     0.15660
C1038       C  0.42961020  0.04004321  0.02101627    -0.23290
H1039       H  0.41552106  0.79195381  0.71896713     0.05880
H1040       H  0.38957460  0.79512470  0.66923504     0.09100
H1041       H  0.34981021  0.81026149  0.71258149     0.09100
H1042       H  0.42801253  0.05134128  0.98878655     0.09090
H1043       H  0.46623384  0.05309532  0.03217609     0.09090
H1044       H  0.39871173  0.06232903  0.03724406     0.05860
C1045       C  0.06274267  0.98018046  0.88291139    -0.19940
C1046       C  0.03496557  0.94508938  0.85820546    -0.06510
C1047       C  0.05049480  0.88919379  0.86000412     0.14360
C1048       C  0.09131803  0.87325286  0.88458836    -0.20000
C1049       C  0.11877825  0.90912755  0.90669926    -0.06510
C1050       C  0.10451137  0.96321789  0.90612054     0.14350
C1051       C  0.13291875  0.00290562  0.93035991    -0.23350
H1052       H  0.05204257  0.02215001  0.88347689     0.15640
H1053       H  0.10322673  0.83152846  0.88604570     0.15660
C1054       C  0.02732834  0.84336071  0.83787601    -0.23290
H1055       H  0.11638674  0.04390361  0.92710404     0.05880
H1056       H  0.17292966  0.00296701  0.92013212     0.09100
H1057       H  0.13168258  0.99208717  0.96269144     0.09100
H1058       H  0.02353301  0.85040631  0.80528054     0.09090
H1059       H  0.99140767  0.83317525  0.85260072     0.09090
H1060       H  0.05108917  0.80607573  0.83961678     0.05860
C1061       C  0.13120989  0.54034853  0.88086868    -0.19940
C1062       C  0.12745741  0.54457484  0.83904967    -0.06730
C1063       C  0.08469023  0.52445505  0.81969299     0.14360
C1064       C  0.04690221  0.50076524  0.84281082    -0.20000
C1065       C  0.05012076  0.49645896  0.88530931    -0.06510
C1066       C  0.09381966  0.51753845  0.90440944     0.14350
C1067       C  0.10267554  0.51752455  0.94949138    -0.23350
H1068       H  0.16376817  0.55632885  0.89570938     0.15640
H1069       H  0.01430108  0.48663379  0.82718388     0.15660
C1070       C  0.07875678  0.52691945  0.77467495    -0.23290
H1071       H  0.13541430  0.54158246  0.95786765     0.05880
H1072       H  0.11210994  0.47688862  0.96037407     0.09100
H1073       H  0.06993695  0.53505205  0.96626993     0.09100
H1074       H  0.11197639  0.50681999  0.75981174     0.09090
H1075       H  0.07524531  0.56898804  0.76479309     0.09090
H1076       H  0.04436539  0.50681054  0.76446768     0.05860
C1077       C  0.44859104  0.49187951  0.73282518    -0.19940
C1078       C  0.44816042  0.49184943  0.69011863    -0.06510
C1079       C  0.39996408  0.50451472  0.67184147     0.14360
C1080       C  0.35999333  0.52602717  0.69536158    -0.20000
C1081       C  0.36458715  0.53422375  0.73674527    -0.06510
C1082       C  0.40883048  0.51485141  0.75602846     0.14350
C1083       C  0.41449761  0.51752650  0.80107385    -0.23350
H1084       H  0.48027446  0.47489159  0.74904645     0.15640
H1085       H  0.32498872  0.53846899  0.68076165     0.15660
C1086       C  0.38887643  0.49786119  0.96086821    -0.23290
H1087       H  0.45039603  0.49772451  0.81110881     0.05880
H1088       H  0.38276410  0.49739518  0.81589596     0.09100
H1089       H  0.41512848  0.55957902  0.81117863     0.09100
H1090       H  0.41827021  0.51560549  0.94211062     0.09090
H1091       H  0.35244330  0.51786558  0.95214862     0.09090
H1092       H  0.38508007  0.45524994  0.95347520     0.05860
loop_ 
_geom_bond_atom_site_label_1 
_geom_bond_atom_site_label_2 
_geom_bond_distance 
_geom_bond_site_symmetry_2 
_ccdc_geom_bond_type 
O1            C4   1.268       .  A
O1           Cd6   2.473       .  S
C2           O11   1.262       .  A
C2            O7   1.267       .  A
C2           C15   1.464       .  S
O3            C9   1.267       .  A
O3           Cd6   2.493       .  S
C4           O12   1.267       .  A
C4          C353   1.487       .  S
C5           O10   1.268       .  A
C5            O8   1.266       .  A
C5          C334   1.487       .  S
Cd6          O13   2.422       .  S
Cd6          O12   2.432       .  S
Cd6          O11   2.418       .  S
Cd6           O7   2.508       .  S
Cd6          O10   2.494       .  S
Cd6           O8   2.423       .  S
C9           O13   1.261       .  A
C9           C22   1.461       .  S
O14          C17   1.267       .  A
O14         Cd19   2.467       .  S
C15          O24   1.260       .  A
C15          O20   1.266       .  A
O16          C22   1.265       .  A
O16        Cd747   2.493   1_554  S
C17         O389   1.266       .  A
C17         C669   1.472       .  S
C18          O23   1.266       .  A
C18          O21   1.268       .  A
C18         C321   1.472       .  S
Cd19         O26   2.430       .  S
Cd19         O24   2.424       .  S
Cd19         O20   2.520       .  S
Cd19         O23   2.434       .  S
Cd19         O21   2.476       .  S
Cd19        O380   2.493       .  S
Cd19        O389   2.456       .  S
C22         O754   1.262   1_554  A
O25         C745   1.266   1_554  A
O25        Cd747   2.456   1_554  S
O26         C386   1.262       .  A
O27          C30   1.267       .  A
O27         Cd32   2.510       .  S
C28          O37   1.266       .  A
C28          O33   1.269       .  A
C28         C286   1.483       .  S
O29          C35   1.267       .  A
O29         Cd32   2.495       .  S
C30          O38   1.260       .  A
C30          C48   1.459       .  S
C31          O36   1.268       .  A
C31          O34   1.266       .  A
C31         C270   1.484       .  S
Cd32         O39   2.417       .  S
Cd32         O38   2.397       .  S
Cd32         O37   2.429       .  S
Cd32         O33   2.466       .  S
Cd32         O36   2.463       .  S
Cd32         O34   2.439       .  S
C35          O39   1.262       .  A
C35          C43   1.461       .  S
O40          C43   1.268       .  A
O40        Cd409   2.497       .  S
C41          O50   1.265       .  A
C41          O46   1.269       .  A
C41         C238   1.488       .  S
O42          C48   1.268       .  A
O42         Cd45   2.503       .  S
C43         O415   1.262       .  A
C44          O49   1.269       .  A
C44         O775   1.267   1_554  A
C44         C982   1.479   1_554  S
Cd45         O52   2.394       .  S
Cd45         O51   2.413   1_554  S
Cd45         O50   2.427       .  S
Cd45         O46   2.474       .  S
Cd45         O49   2.474       .  S
Cd45        O768   2.497   1_554  S
Cd45        O775   2.428   1_554  S
O47         C408   1.267       .  A
O47        Cd409   2.428       .  S
C48          O52   1.261       .  A
O51         C771   1.262       .  A
O53          C56   1.270       .  A
O53         Cd58   2.481       .  S
C54          O63   1.262       .  A
C54          O59   1.268       .  A
C54          C70   1.464       .  S
O55          C61   1.267       .  A
O55        Cd786   2.503   1_554  S
C56         O428   1.265       .  A
C56         C570   1.491       .  S
C57          O62   1.269       .  A
C57          O60   1.267       .  A
C57         C225   1.485       .  S
Cd58         O65   2.415       .  S
Cd58         O63   2.417       .  S
Cd58         O59   2.512       .  S
Cd58         O62   2.487       .  S
Cd58         O60   2.435       .  S
Cd58        O419   2.503       .  S
Cd58        O428   2.449       .  S
C61         O793   1.262       .  A
C61          C69   1.462       .  S
O64         C784   1.265   1_554  A
O64        Cd786   2.449   1_554  S
O65         C425   1.262       .  A
O66          C69   1.266       .  A
O66         Cd71   2.507       .  S
C67          O76   1.268       .  A
C67          O72   1.267       .  A
C67         C190   1.490       .  S
O68          C74   1.267       .  A
O68         Cd71   2.479       .  S
C69          O77   1.261       .  A
C70          O75   1.266       .  A
C70          O73   1.261       .  A
Cd71         O78   2.459       .  S
Cd71         O77   2.422       .  S
Cd71         O76   2.487       .  S
Cd71         O72   2.450       .  S
Cd71         O75   2.514       .  S
Cd71         O73   2.422       .  S
C74          O78   1.266       .  A
C74         C174   1.475       .  S
O79          C82   1.268       .  A
O79         Cd84   2.500       .  S
C80          O89   1.266       .  A
C80          O85   1.269       .  A
C80         C158   1.481       .  S
O81          C87   1.267       .  A
O81         Cd84   2.482       .  S
C82          O90   1.261       .  A
C82          C93   1.457       .  S
C83          O88   1.267       .  A
C83          O86   1.267       .  A
C83         C142   1.481       .  S
Cd84         O91   2.403       .  S
Cd84         O90   2.394       .  S
Cd84         O89   2.420       .  S
Cd84         O85   2.463       .  S
Cd84         O88   2.449       .  S
Cd84         O86   2.426       .  S
C87          O91   1.262       .  A
C87          C96   1.456       .  S
O92          C95   1.268       .  A
O92         Cd97   2.467       .  S
C93          O98   1.266       .  A
C93         O466   1.261       .  A
O94         C100   1.266       .  A
O94         Cd97   2.476       .  S
C95         O103   1.266       .  A
C95         C126   1.475       .  S
C96         O101   1.266       .  A
C96          O99   1.262       .  A
Cd97        O103   2.421       .  S
Cd97        O102   2.402   1_554  S
Cd97        O101   2.485       .  S
Cd97         O99   2.405       .  S
Cd97        O832   2.424   1_554  S
Cd97        O826   2.499   1_554  S
O98        Cd461   2.499       .  S
C100        O832   1.267   1_554  A
C100        C838   1.490   1_554  S
O102        C821   1.261       .  A
O104        C464   1.267       .  A
O104       Cd461   2.424       .  S
C105        C129   1.577       .  S
C105        C222   1.592   1_565  S
C105        C241   1.579   1_665  S
C105        C318   1.592   1_655  S
C106        C113   1.598   1_455  S
C106        C193   1.620   1_455  S
C106        C257   1.617       .  S
C106        C337   1.551       .  S
C107        C161   1.588       .  S
C107        C209   1.586       .  S
C107        C273   1.592   1_565  S
C107        C302   1.569       .  S
C108        C145   1.577       .  S
C108        C289   1.585       .  S
C108        C541   1.603       .  S
C108        C714   1.582       .  S
C109        C110   1.397       .  A
C109        C114   1.401       .  A
C109        H116   1.084       .  S
C110        C464   1.490       .  S
C110        C475   1.414       .  A
C111        C118   1.508   1_556  S
C111        C838   1.414       .  A
C111        C840   1.407       .  A
C112        C113   1.421       .  A
C112        C475   1.407       .  A
C112        H481   1.084       .  S
C113        C114   1.444       .  A
C114        C115   1.515       .  S
C115        H119   1.111       .  S
C115        H120   1.108       .  S
C115        H121   1.104   1_655  S
H117        C840   1.084       .  S
C118        H122   1.110       .  S
C118        H123   1.111       .  S
C118        H124   1.111       .  S
C125        C126   1.395       .  A
C125        C130   1.411       .  A
C125        H132   1.086       .  S
C126        C127   1.405       .  A
C127        C134   1.511       .  S
C127        C128   1.396       .  A
C128        C129   1.421       .  A
C128        H133   1.081       .  S
C129        C130   1.447       .  A
C130        C131   1.513       .  S
C131        H135   1.105       .  S
C131        H136   1.110   1_655  S
C131        H137   1.092   1_565  S
C134        H138   1.109       .  S
C134        H139   1.111       .  S
C134        H140   1.111       .  S
C141        C142   1.394       .  A
C141        C146   1.407       .  A
C141        H148   1.084       .  S
C142        C143   1.406       .  A
C143        C150   1.509       .  S
C143        C144   1.400       .  A
C144        C145   1.421       .  A
C144        H149   1.082       .  S
C145        C146   1.451       .  A
C146        C147   1.519       .  S
C147        H151   1.111       .  S
C147        H152   1.103       .  S
C147        H153   1.103       .  S
C150        H154   1.111       .  S
C150        H155   1.110       .  S
C150        H156   1.111       .  S
C157        C158   1.397       .  A
C157        C162   1.403       .  A
C157        H164   1.084       .  S
C158        C159   1.404       .  A
C159        C166   1.507       .  S
C159        C160   1.403       .  A
C160        C161   1.425       .  A
C160        H165   1.075       .  S
C161        C162   1.440       .  A
C162        C163   1.515       .  S
C163        H167   1.110       .  S
C163        H168   1.105       .  S
C163        H169   1.100       .  S
C166        H170   1.109       .  S
C166        H171   1.111       .  S
C166        H172   1.110       .  S
C173        C174   1.393       .  A
C173        C178   1.412       .  A
C173        H180   1.085       .  S
C174        C175   1.402       .  A
C175        C182   1.511       .  S
C175        C176   1.399       .  A
C176        C177   1.426       .  A
C176        H181   1.076   1_554  S
C177        C836   1.603   1_554  S
C177        C178   1.445       .  A
C178        C179   1.505       .  S
C179        H183   1.111       .  S
C179        H184   1.089       .  S
C179        H913   1.111       .  S
C182        H186   1.110       .  S
C182        H187   1.110       .  S
C182        H188   1.111       .  S
H185        C543   1.111       .  S
C189        C190   1.393       .  A
C189        C194   1.411       .  A
C189        H196   1.084       .  S
C190        C191   1.402       .  A
C191        C198   1.510       .  S
C191        C192   1.408       .  A
C192        C193   1.438       .  A
C192        H197   1.076       .  S
C193        C194   1.444       .  A
C194        C195   1.495   1_655  S
C195        H199   1.111       .  S
C195        H200   1.101       .  S
C195        H201   1.100       .  S
C198        H202   1.110       .  S
C198        H203   1.110       .  S
C198        H204   1.110       .  S
C205        C570   1.398       .  A
C205        C574   1.410   1_545  A
C205        H212   1.085       .  S
C206        C784   1.491   1_554  S
C206        C207   1.412       .  A
C206        C933   1.398   1_554  A
C207        C214   1.509       .  S
C207        C208   1.402   1_545  A
C208        C209   1.423       .  A
C208        H213   1.083       .  S
C209        C210   1.443       .  A
C210        C939   1.512   1_554  S
C210        C933   1.410   1_564  A
C211        C574   1.512       .  S
C211        H215   1.109       .  S
C211        H216   1.109       .  S
C211        H217   1.094       .  S
C214        H218   1.110       .  S
C214        H219   1.110       .  S
C214        H220   1.111       .  S
C221        C222   1.424   1_565  A
C221        C226   1.408   1_565  A
C221        H228   1.077       .  S
C222        C223   1.440       .  A
C223        C230   1.506       .  S
C223        C224   1.400       .  A
C224        C225   1.395       .  A
C224        H229   1.085       .  S
C225        C226   1.406       .  A
C226        C227   1.504   1_545  S
C227        H231   1.109       .  S
C227        H232   1.111       .  S
C227        H233   1.109   1_565  S
C230        H234   1.087       .  S
C230        H235   1.111       .  S
C230        H236   1.111       .  S
C237        C238   1.400       .  A
C237        C242   1.407       .  A
C237        H244   1.085       .  S
C238        C239   1.411       .  A
C239        C246   1.511       .  S
C239        C240   1.400       .  A
C240        C241   1.421       .  A
C240        H245   1.075   1_455  S
C241        C242   1.439       .  A
C242        C243   1.507   1_545  S
C243        H247   1.110       .  S
C243        H248   1.111       .  S
C243        H249   1.093       .  S
C246        H250   1.110       .  S
C246        H251   1.110       .  S
C246        H252   1.111   1_455  S
C253        C254   1.388       .  A
C253        C258   1.404       .  A
C253        H260   1.087       .  S
C254        C408   1.479       .  S
C254        C619   1.399       .  A
C255        C262   1.510       .  S
C255        C982   1.399   1_554  A
C255        C984   1.409   1_554  A
C256        C257   1.435       .  A
C256        C619   1.409       .  A
C256        H625   1.064       .  S
C257        C258   1.458       .  A
C258        C259   1.524       .  S
C259        H263   1.111       .  S
C259        H264   1.111       .  S
C259        H265   1.086       .  S
H261        C984   1.064       .  S
C262        H266   1.110       .  S
C262        H267   1.110       .  S
C262        H268   1.111       .  S
C269        C270   1.397       .  A
C269        C274   1.407       .  A
C269        H276   1.085       .  S
C270        C271   1.406       .  A
C271        C278   1.510       .  S
C271        C272   1.402       .  A
C272        C273   1.423       .  A
C272        H277   1.073       .  S
C273        C274   1.444       .  A
C274        C275   1.514   1_545  S
C275        H279   1.111       .  S
C275        H280   1.105       .  S
C275        H281   1.107       .  S
C278        H282   1.111       .  S
C278        H283   1.108       .  S
C278        H284   1.111       .  S
C285        C286   1.396       .  A
C285        C290   1.412       .  A
C285        H292   1.085       .  S
C286        C287   1.408       .  A
C287        C294   1.510       .  S
C287        C288   1.396       .  A
C288        C289   1.423       .  A
C288        H657   1.084       .  S
C289        C290   1.448       .  A
C290        C291   1.513       .  S
C291        H295   1.109       .  S
C291        H296   1.105       .  S
C291        H297   1.105       .  S
H293       C1016   1.084   1_554  S
C294        H298   1.109       .  S
C294        H299   1.111       .  S
C294        H664   1.111       .  S
H300       C1022   1.111       .  S
C301        C302   1.422       .  A
C301        C306   1.396       .  A
C301        H308   1.075       .  S
C302        C303   1.441       .  A
C303       C1038   1.510   1_565  S
C303       C1032   1.412       .  A
C304        C667   1.412       .  A
C304        C669   1.396       .  A
C304        H309   1.084       .  S
C305        C745   1.472   1_554  S
C305        C306   1.402       .  A
C305       C1032   1.396       .  A
C306        C307   1.511       .  S
C307        H311   1.111       .  S
C307        H312   1.110       .  S
C307        H313   1.110       .  S
C310        C667   1.510   1_545  S
C310        H314   1.110       .  S
C310        H315   1.100       .  S
C310        H316   1.110       .  S
C317        C318   1.429       .  A
C317        C322   1.405       .  A
C317        H324   1.082   1_565  S
C318        C319   1.451       .  A
C319        C326   1.515       .  S
C319        C320   1.405       .  A
C320        C321   1.390       .  A
C320        H325   1.085       .  S
C321        C322   1.398       .  A
C322        C323   1.505   1_565  S
C323        H327   1.110       .  S
C323        H328   1.110       .  S
C323        H329   1.111   1_545  S
C326        H330   1.103       .  S
C326        H331   1.106   1_455  S
C326        H332   1.111       .  S
C333        C334   1.399       .  A
C333        C338   1.399       .  A
C333        H340   1.084       .  S
C334        C335   1.413       .  A
C335        C342   1.507       .  S
C335        C336   1.409       .  A
C336        C337   1.421       .  A
C336        H341   1.080       .  S
C337        C338   1.439       .  A
C338        C339   1.519       .  S
C339        H343   1.111       .  S
C339        H344   1.105       .  S
C339        H345   1.105       .  S
C342        H346   1.110       .  S
C342        H347   1.109       .  S
C342        H348   1.111       .  S
C349        C350   1.420       .  A
C349        C354   1.407       .  A
C349        H356   1.075       .  S
C350        C836   1.582   1_554  S
C350        C351   1.441       .  A
C351       C1086   1.514   1_554  S
C351        C352   1.403       .  A
C352        C353   1.397       .  A
C352        H357   1.084       .  S
C353        C354   1.409       .  A
C354        C355   1.508       .  S
C355        H359   1.109       .  S
C355        H360   1.110       .  S
C355        H361   1.109       .  S
C358        C715   1.514       .  S
C358        H362   1.103       .  S
C358        H363   1.111       .  S
C358        H364   1.107       .  S
O365        C368   1.268       .  A
O365       Cd370   2.473       .  S
C366        O375   1.262       .  A
C366        O371   1.267       .  A
C366        C379   1.464       .  S
O367        C373   1.267       .  A
O367       Cd370   2.493       .  S
C368        O376   1.267       .  A
C368        C717   1.487       .  S
C369        O374   1.268       .  A
C369        O372   1.266       .  A
C369        C698   1.487       .  S
Cd370       O377   2.422       .  S
Cd370       O376   2.432       .  S
Cd370       O375   2.418       .  S
Cd370       O371   2.508       .  S
Cd370       O374   2.494       .  S
Cd370       O372   2.423       .  S
C373        O377   1.261       .  A
C373        C386   1.461       .  S
O378        C381   1.267       .  A
O378       Cd383   2.467       .  S
C379        O388   1.260       .  A
C379        O384   1.266       .  A
O380        C386   1.265       .  A
C381        O753   1.266       .  A
C381       C1033   1.472       .  S
C382        O387   1.266       .  A
C382        O385   1.268       .  A
C382        C685   1.472       .  S
Cd383       O744   2.493       .  S
Cd383       O390   2.430       .  S
Cd383       O753   2.456       .  S
Cd383       O388   2.424       .  S
Cd383       O384   2.520       .  S
Cd383       O387   2.434       .  S
Cd383       O385   2.476       .  S
O390        C750   1.262       .  A
O391        C394   1.267       .  A
O391       Cd396   2.510       .  S
C392        O401   1.266       .  A
C392        O397   1.269       .  A
C392        C650   1.483       .  S
O393        C399   1.267       .  A
O393       Cd396   2.495       .  S
C394        O402   1.260       .  A
C394        C412   1.459       .  S
C395        O400   1.268       .  A
C395        O398   1.266       .  A
C395        C634   1.484       .  S
Cd396       O403   2.417       .  S
Cd396       O402   2.397       .  S
Cd396       O401   2.429       .  S
Cd396       O397   2.466       .  S
Cd396       O400   2.463       .  S
Cd396       O398   2.439       .  S
C399        O403   1.262       .  A
C399        C407   1.461       .  S
O404        C407   1.268       .  A
O404       Cd773   2.497       .  S
C405        O414   1.265       .  A
C405        O410   1.269       .  A
C405        C602   1.488       .  S
O406        C412   1.268       .  A
O406       Cd409   2.503       .  S
C407        O779   1.262       .  A
C408        O413   1.269       .  A
Cd409       O416   2.394       .  S
Cd409       O415   2.413       .  S
Cd409       O414   2.427       .  S
Cd409       O410   2.474       .  S
Cd409       O413   2.474       .  S
O411        C772   1.267       .  A
O411       Cd773   2.428       .  S
C412        O416   1.261       .  A
O417        C420   1.270       .  A
O417       Cd422   2.481       .  S
C418        O427   1.262       .  A
C418        O423   1.268       .  A
C418        C434   1.464       .  S
O419        C425   1.267       .  A
C420        O792   1.265       .  A
C420        C934   1.491       .  S
C421        O426   1.269       .  A
C421        O424   1.267       .  A
C421        C589   1.485       .  S
Cd422       O783   2.503       .  S
Cd422       O429   2.415       .  S
Cd422       O792   2.449       .  S
Cd422       O427   2.417       .  S
Cd422       O423   2.512       .  S
Cd422       O426   2.487       .  S
Cd422       O424   2.435       .  S
C425        C433   1.462       .  S
O429        C789   1.262       .  A
O430        C433   1.266       .  A
O430       Cd435   2.507       .  S
C431        O440   1.268       .  A
C431        O436   1.267       .  A
C431        C554   1.490       .  S
O432        C438   1.267       .  A
O432       Cd435   2.479       .  S
C433        O441   1.261       .  A
C434        O439   1.266       .  A
C434        O437   1.261       .  A
Cd435       O442   2.459       .  S
Cd435       O441   2.422       .  S
Cd435       O440   2.487       .  S
Cd435       O436   2.450       .  S
Cd435       O439   2.514       .  S
Cd435       O437   2.422       .  S
C438        O442   1.266       .  A
C438        C538   1.475       .  S
O443        C446   1.268       .  A
O443       Cd448   2.500       .  S
C444        O453   1.266       .  A
C444        O449   1.269       .  A
C444        C522   1.481       .  S
O445        C451   1.267       .  A
O445       Cd448   2.482       .  S
C446        O454   1.261       .  A
C446        C457   1.457       .  S
C447        O452   1.267       .  A
C447        O450   1.267       .  A
C447        C506   1.481       .  S
Cd448       O455   2.403       .  S
Cd448       O454   2.393       .  S
Cd448       O453   2.420       .  S
Cd448       O449   2.463       .  S
Cd448       O452   2.449       .  S
Cd448       O450   2.426       .  S
C451        O455   1.262       .  A
C451        C460   1.456       .  S
O456        C459   1.268       .  A
O456       Cd461   2.467       .  S
C457        O830   1.261       .  A
C457        O462   1.266       .  A
O458        C464   1.266       .  A
O458       Cd461   2.476       .  S
C459        O467   1.266       .  A
C459        C490   1.475       .  S
C460        O465   1.266       .  A
C460        O463   1.262       .  A
Cd461       O467   2.421       .  S
Cd461       O466   2.402       .  S
Cd461       O465   2.485       .  S
Cd461       O463   2.405       .  S
O462       Cd825   2.499       .  S
O468        C828   1.267       .  A
O468       Cd825   2.424       .  S
C469        C493   1.577       .  S
C469        C586   1.592   1_565  S
C469        C605   1.579   1_665  S
C469        C682   1.592   1_655  S
C470        C477   1.598   1_455  S
C470        C557   1.620   1_455  S
C470        C621   1.617       .  S
C470        C701   1.551       .  S
C471        C525   1.588       .  S
C471        C573   1.586       .  S
C471        C637   1.592   1_565  S
C471        C666   1.569       .  S
C472        C509   1.577       .  S
C472        C905   1.603       .  S
C472        C653   1.585       .  S
C472       C1078   1.582       .  S
C473        C474   1.397       .  A
C473        C478   1.401       .  A
C473        H480   1.084       .  S
C474        C828   1.490       .  S
C474        C839   1.414       .  A
C475        C482   1.508       .  S
C476        C839   1.407       .  A
C476        C477   1.421       .  A
C476        H845   1.084       .  S
C477        C478   1.444       .  A
C478        C479   1.515       .  S
C479        H483   1.111       .  S
C479        H484   1.108       .  S
C479        H485   1.104   1_655  S
C482        H486   1.110       .  S
C482        H487   1.111       .  S
C482        H488   1.111       .  S
C489        C490   1.395       .  A
C489        C494   1.411       .  A
C489        H496   1.086       .  S
C490        C491   1.405       .  A
C491        C498   1.511       .  S
C491        C492   1.396       .  A
C492        C493   1.421       .  A
C492        H497   1.081       .  S
C493        C494   1.447       .  A
C494        C495   1.513       .  S
C495        H499   1.105       .  S
C495        H500   1.110   1_655  S
C495        H501   1.092   1_565  S
C498        H502   1.109       .  S
C498        H503   1.111       .  S
C498        H504   1.111       .  S
C505        C506   1.394       .  A
C505        C510   1.407       .  A
C505        H512   1.084       .  S
C506        C507   1.406       .  A
C507        C514   1.509       .  S
C507        C508   1.400       .  A
C508        C509   1.421       .  A
C508        H513   1.082       .  S
C509        C510   1.451       .  A
C510        C511   1.519       .  S
C511        H515   1.111       .  S
C511        H516   1.103       .  S
C511        H517   1.103       .  S
C514        H518   1.111       .  S
C514        H519   1.110       .  S
C514        H520   1.111       .  S
C521        C522   1.397       .  A
C521        C526   1.403       .  A
C521        H528   1.084       .  S
C522        C523   1.404       .  A
C523        C530   1.507       .  S
C523        C524   1.403       .  A
C524        C525   1.425       .  A
C524        H529   1.075       .  S
C525        C526   1.440       .  A
C526        C527   1.515       .  S
C527        H531   1.110       .  S
C527        H532   1.105       .  S
C527        H533   1.100       .  S
C530        H534   1.109       .  S
C530        H535   1.111       .  S
C530        H536   1.110       .  S
C537        C538   1.393       .  A
C537        C542   1.412       .  A
C537        H544   1.085       .  S
C538        C539   1.402       .  A
C539        C546   1.511       .  S
C539        C540   1.399       .  A
C540        C541   1.426       .  A
C540        H545   1.076       .  S
C541        C542   1.445       .  A
C542        C543   1.505       .  S
C543        H547   1.111       .  S
C543        H548   1.089       .  S
C546        H550   1.110       .  S
C546        H551   1.110       .  S
C546        H552   1.111       .  S
H549        C907   1.111       .  S
C553        C554   1.393       .  A
C553        C558   1.411       .  A
C553        H560   1.084       .  S
C554        C555   1.402       .  A
C555        C562   1.510       .  S
C555        C556   1.408       .  A
C556        C557   1.438       .  A
C556        H561   1.076       .  S
C557        C558   1.444       .  A
C558        C559   1.495   1_655  S
C559        H563   1.111       .  S
C559        H564   1.101       .  S
C559        H565   1.100       .  S
C562        H566   1.110       .  S
C562        H567   1.110       .  S
C562        H568   1.110       .  S
C569        C934   1.398       .  A
C569        C938   1.410   1_545  A
C569        H576   1.085       .  S
C570        C571   1.412       .  A
C571        C578   1.509       .  S
C571        C572   1.402   1_545  A
C572        C573   1.423       .  A
C572        H577   1.083       .  S
C573        C574   1.443       .  A
C575        C938   1.512       .  S
C575        H579   1.109       .  S
C575        H580   1.109       .  S
C575        H581   1.094       .  S
C578        H582   1.110       .  S
C578        H583   1.110       .  S
C578        H584   1.111       .  S
C585        C586   1.424   1_565  A
C585        C590   1.408   1_565  A
C585        H592   1.077       .  S
C586        C587   1.440       .  A
C587        C594   1.506       .  S
C587        C588   1.400       .  A
C588        C589   1.395       .  A
C588        H593   1.085       .  S
C589        C590   1.406       .  A
C590        C591   1.504   1_545  S
C591        H595   1.109       .  S
C591        H596   1.111       .  S
C591        H597   1.109   1_565  S
C594        H598   1.087       .  S
C594        H599   1.111       .  S
C594        H600   1.111       .  S
C601        C602   1.400       .  A
C601        C606   1.407       .  A
C601        H608   1.085       .  S
C602        C603   1.411       .  A
C603        C610   1.511       .  S
C603        C604   1.400       .  A
C604        C605   1.421       .  A
C604        H609   1.075   1_455  S
C605        C606   1.439       .  A
C606        C607   1.507   1_545  S
C607        H611   1.110       .  S
C607        H612   1.111       .  S
C607        H613   1.093       .  S
C610        H614   1.110       .  S
C610        H615   1.110       .  S
C610        H616   1.111   1_455  S
C617        C618   1.388       .  A
C617        C622   1.404       .  A
C617        H624   1.087       .  S
C618        C772   1.479       .  S
C618        C983   1.399       .  A
C619        C626   1.510       .  S
C620        C983   1.409       .  A
C620        C621   1.435       .  A
C620        H989   1.064       .  S
C621        C622   1.458       .  A
C622        C623   1.524       .  S
C623        H627   1.111       .  S
C623        H628   1.111       .  S
C623        H629   1.086       .  S
C626        H630   1.110       .  S
C626        H631   1.110       .  S
C626        H632   1.111       .  S
C633        C634   1.397       .  A
C633        C638   1.407       .  A
C633        H640   1.085       .  S
C634        C635   1.406       .  A
C635        C642   1.510       .  S
C635        C636   1.402       .  A
C636        C637   1.423       .  A
C636        H641   1.073       .  S
C637        C638   1.444       .  A
C638        C639   1.514   1_545  S
C639        H643   1.111       .  S
C639        H644   1.105       .  S
C639        H645   1.107       .  S
C642        H646   1.111       .  S
C642        H647   1.108       .  S
C642        H648   1.111       .  S
C649        C650   1.396       .  A
C649        C654   1.412       .  A
C649        H656   1.085       .  S
C650        C651   1.408       .  A
C651        C658   1.510       .  S
C651        C652   1.396       .  A
C652        C653   1.423       .  A
C652       H1021   1.084       .  S
C653        C654   1.448       .  A
C654        C655   1.513       .  S
C655        H659   1.109       .  S
C655        H660   1.105       .  S
C655        H661   1.105       .  S
C658        H662   1.109       .  S
C658        H663   1.111       .  S
C658       H1028   1.111       .  S
C665        C666   1.422       .  A
C665        C670   1.396       .  A
C665        H672   1.075       .  S
C666        C667   1.441       .  A
C668       C1031   1.412       .  A
C668       C1033   1.396       .  A
C668        H673   1.084       .  S
C669        C670   1.402       .  A
C670        C671   1.511       .  S
C671        H675   1.111       .  S
C671        H676   1.110       .  S
C671        H677   1.110       .  S
C674       C1031   1.510   1_545  S
C674        H678   1.110       .  S
C674        H679   1.100       .  S
C674        H680   1.110       .  S
C681        C682   1.429       .  A
C681        C686   1.405       .  A
C681        H688   1.082   1_565  S
C682        C683   1.451       .  A
C683        C690   1.515       .  S
C683        C684   1.405       .  A
C684        C685   1.390       .  A
C684        H689   1.085       .  S
C685        C686   1.398       .  A
C686        C687   1.505   1_565  S
C687        H691   1.110       .  S
C687        H692   1.110       .  S
C687        H693   1.111   1_545  S
C690        H694   1.103       .  S
C690        H695   1.106   1_455  S
C690        H696   1.111       .  S
C697        C698   1.399       .  A
C697        C702   1.399       .  A
C697        H704   1.084       .  S
C698        C699   1.413       .  A
C699        C706   1.507       .  S
C699        C700   1.409       .  A
C700        C701   1.421       .  A
C700        H705   1.080       .  S
C701        C702   1.439       .  A
C702        C703   1.519       .  S
C703        H707   1.111       .  S
C703        H708   1.105       .  S
C703        H709   1.105       .  S
C706        H710   1.110       .  S
C706        H711   1.109       .  S
C706        H712   1.111       .  S
C713        C714   1.420       .  A
C713        C718   1.407       .  A
C713        H720   1.075       .  S
C714        C715   1.441       .  A
C715        C716   1.403       .  A
C716        C717   1.397       .  A
C716        H721   1.084       .  S
C717        C718   1.409       .  A
C718        C719   1.508       .  S
C719        H723   1.109       .  S
C719        H724   1.110       .  S
C719        H725   1.109       .  S
C722       C1079   1.514       .  S
C722        H726   1.103       .  S
C722        H727   1.111       .  S
C722        H728   1.107       .  S
O729        C732   1.268       .  A
O729       Cd734   2.473       .  S
C730        O739   1.262       .  A
C730        O735   1.267       .  A
C730        C743   1.464       .  S
O731        C737   1.267       .  A
O731       Cd734   2.493       .  S
C732        O740   1.267       .  A
C732       C1081   1.487       .  S
C733        O738   1.268       .  A
C733        O736   1.266       .  A
C733       C1062   1.487       .  S
Cd734       O741   2.422       .  S
Cd734       O740   2.432       .  S
Cd734       O739   2.418       .  S
Cd734       O735   2.508       .  S
Cd734       O738   2.494       .  S
Cd734       O736   2.423       .  S
C737        O741   1.261       .  A
C737        C750   1.461       .  S
O742        C745   1.267       .  A
O742       Cd747   2.467       .  S
C743        O752   1.260       .  A
C743        O748   1.266       .  A
O744        C750   1.265       .  A
C746        O751   1.266       .  A
C746        O749   1.268       .  A
C746       C1049   1.472       .  S
Cd747       O754   2.430       .  S
Cd747       O752   2.424       .  S
Cd747       O748   2.520       .  S
Cd747       O751   2.434       .  S
Cd747       O749   2.476       .  S
O755        C758   1.267       .  A
O755       Cd760   2.510       .  S
C756        O765   1.266       .  A
C756        O761   1.269       .  A
C756       C1014   1.483       .  S
O757        C763   1.267       .  A
O757       Cd760   2.495       .  S
C758        O766   1.260       .  A
C758        C776   1.459       .  S
C759        O764   1.268       .  A
C759        O762   1.266       .  A
C759        C998   1.484       .  S
Cd760       O767   2.417       .  S
Cd760       O766   2.397       .  S
Cd760       O765   2.429       .  S
Cd760       O761   2.466       .  S
Cd760       O764   2.463       .  S
Cd760       O762   2.439       .  S
C763        O767   1.262       .  A
C763        C771   1.461       .  S
O768        C771   1.268       .  A
C769        O778   1.265       .  A
C769        O774   1.269       .  A
C769        C966   1.488       .  S
O770        C776   1.268       .  A
O770       Cd773   2.503       .  S
C772        O777   1.269       .  A
Cd773       O780   2.394       .  S
Cd773       O779   2.413       .  S
Cd773       O778   2.427       .  S
Cd773       O774   2.474       .  S
Cd773       O777   2.474       .  S
C776        O780   1.261       .  A
O781        C784   1.270       .  A
O781       Cd786   2.481       .  S
C782        O791   1.262       .  A
C782        O787   1.268       .  A
C782        C798   1.464       .  S
O783        C789   1.267       .  A
C785        O790   1.269       .  A
C785        O788   1.267       .  A
C785        C953   1.485       .  S
Cd786       O793   2.415   1_556  S
Cd786       O791   2.417       .  S
Cd786       O787   2.512       .  S
Cd786       O790   2.487       .  S
Cd786       O788   2.435       .  S
C789        C797   1.462       .  S
O794        C797   1.266       .  A
O794       Cd799   2.507       .  S
C795        O804   1.268       .  A
C795        O800   1.267       .  A
C795        C918   1.490       .  S
O796        C802   1.267       .  A
O796       Cd799   2.479       .  S
C797        O805   1.261       .  A
C798        O803   1.266       .  A
C798        O801   1.261       .  A
Cd799       O806   2.459       .  S
Cd799       O805   2.422       .  S
Cd799       O804   2.487       .  S
Cd799       O800   2.450       .  S
Cd799       O803   2.514       .  S
Cd799       O801   2.422       .  S
C802        O806   1.266       .  A
C802        C902   1.475       .  S
O807        C810   1.268       .  A
O807       Cd812   2.500       .  S
C808        O817   1.266       .  A
C808        O813   1.269       .  A
C808        C886   1.481       .  S
O809        C815   1.267       .  A
O809       Cd812   2.482       .  S
C810        O818   1.261       .  A
C810        C821   1.457       .  S
C811        O816   1.267       .  A
C811        O814   1.267       .  A
C811        C870   1.481       .  S
Cd812       O819   2.403       .  S
Cd812       O818   2.393       .  S
Cd812       O817   2.420       .  S
Cd812       O813   2.463       .  S
Cd812       O816   2.449       .  S
Cd812       O814   2.426       .  S
C815        O819   1.262       .  A
C815        C824   1.456       .  S
O820        C823   1.268       .  A
O820       Cd825   2.467       .  S
C821        O826   1.266       .  A
O822        C828   1.266       .  A
O822       Cd825   2.476       .  S
C823        O831   1.266       .  A
C823        C854   1.475       .  S
C824        O829   1.266       .  A
C824        O827   1.262       .  A
Cd825       O831   2.421       .  S
Cd825       O830   2.402       .  S
Cd825       O829   2.485       .  S
Cd825       O827   2.405       .  S
C833        C857   1.577       .  S
C833        C950   1.592   1_565  S
C833        C969   1.579   1_665  S
C833       C1046   1.592   1_655  S
C834        C841   1.598   1_455  S
C834        C921   1.620   1_455  S
C834        C985   1.617       .  S
C834       C1065   1.551       .  S
C835        C889   1.588       .  S
C835        C937   1.586       .  S
C835       C1001   1.592   1_565  S
C835       C1030   1.569       .  S
C836        C873   1.577       .  S
C836       C1017   1.586       .  S
C837        C838   1.397       .  A
C837        C842   1.401       .  A
C837        H844   1.084       .  S
C839        C846   1.508       .  S
C840        C841   1.421       .  A
C841        C842   1.444       .  A
C842        C843   1.515       .  S
C843        H847   1.111       .  S
C843        H848   1.108       .  S
C843        H849   1.104   1_655  S
C846        H850   1.110       .  S
C846        H851   1.111       .  S
C846        H852   1.111       .  S
C853        C854   1.395       .  A
C853        C858   1.411       .  A
C853        H860   1.086       .  S
C854        C855   1.405       .  A
C855        C862   1.511       .  S
C855        C856   1.396       .  A
C856        C857   1.421       .  A
C856        H861   1.081       .  S
C857        C858   1.447       .  A
C858        C859   1.513       .  S
C859        H863   1.105       .  S
C859        H864   1.110   1_655  S
C859        H865   1.092   1_565  S
C862        H866   1.109       .  S
C862        H867   1.111       .  S
C862        H868   1.111       .  S
C869        C870   1.394       .  A
C869        C874   1.407       .  A
C869        H876   1.084       .  S
C870        C871   1.406       .  A
C871        C878   1.509       .  S
C871        C872   1.400       .  A
C872        C873   1.421       .  A
C872        H877   1.082       .  S
C873        C874   1.451       .  A
C874        C875   1.519       .  S
C875        H879   1.111       .  S
C875        H880   1.103   1_556  S
C875        H881   1.103       .  S
C878        H882   1.111       .  S
C878        H883   1.110       .  S
C878        H884   1.111       .  S
C885        C886   1.397       .  A
C885        C890   1.403       .  A
C885        H892   1.084       .  S
C886        C887   1.404       .  A
C887        C894   1.507       .  S
C887        C888   1.403       .  A
C888        C889   1.425       .  A
C888        H893   1.075       .  S
C889        C890   1.440       .  A
C890        C891   1.515       .  S
C891        H895   1.110       .  S
C891        H896   1.105       .  S
C891        H897   1.100       .  S
C894        H898   1.109       .  S
C894        H899   1.111       .  S
C894        H900   1.110       .  S
C901        C902   1.393       .  A
C901        C906   1.412       .  A
C901        H908   1.085       .  S
C902        C903   1.402       .  A
C903        C910   1.511       .  S
C903        C904   1.399       .  A
C904        C905   1.426       .  A
C904        H909   1.076       .  S
C905        C906   1.445       .  A
C906        C907   1.505       .  S
C907        H911   1.111       .  S
C907        H912   1.089       .  S
C910        H914   1.110       .  S
C910        H915   1.110       .  S
C910        H916   1.111       .  S
C917        C918   1.393       .  A
C917        C922   1.411       .  A
C917        H924   1.084       .  S
C918        C919   1.402       .  A
C919        C926   1.510       .  S
C919        C920   1.408       .  A
C920        C921   1.438       .  A
C920        H925   1.076       .  S
C921        C922   1.444       .  A
C922        C923   1.495   1_655  S
C923        H927   1.111       .  S
C923        H928   1.101       .  S
C923        H929   1.100       .  S
C926        H930   1.110       .  S
C926        H931   1.110       .  S
C926        H932   1.110       .  S
C933        H940   1.085       .  S
C934        C935   1.412       .  A
C935        C942   1.509       .  S
C935        C936   1.402   1_545  A
C936        C937   1.423       .  A
C936        H941   1.083       .  S
C937        C938   1.443       .  A
C939        H943   1.109       .  S
C939        H944   1.109       .  S
C939        H945   1.094       .  S
C942        H946   1.110       .  S
C942        H947   1.110       .  S
C942        H948   1.111       .  S
C949        C950   1.424   1_565  A
C949        C954   1.408   1_565  A
C949        H956   1.077       .  S
C950        C951   1.440       .  A
C951        C958   1.506       .  S
C951        C952   1.400       .  A
C952        C953   1.395       .  A
C952        H957   1.085       .  S
C953        C954   1.406       .  A
C954        C955   1.504   1_545  S
C955        H959   1.109       .  S
C955        H960   1.111       .  S
C955        H961   1.109   1_565  S
C958        H962   1.087       .  S
C958        H963   1.111       .  S
C958        H964   1.111       .  S
C965        C966   1.400       .  A
C965        C970   1.407       .  A
C965        H972   1.085       .  S
C966        C967   1.411       .  A
C967        C974   1.511       .  S
C967        C968   1.400       .  A
C968        C969   1.421       .  A
C968        H973   1.075   1_455  S
C969        C970   1.439       .  A
C970        C971   1.507   1_545  S
C971        H975   1.110       .  S
C971        H976   1.111       .  S
C971        H977   1.093       .  S
C974        H978   1.110       .  S
C974        H979   1.110       .  S
C974        H980   1.111   1_455  S
C981        C982   1.388       .  A
C981        C986   1.404       .  A
C981        H988   1.087       .  S
C983        C990   1.510       .  S
C984        C985   1.435       .  A
C985        C986   1.458       .  A
C986        C987   1.524       .  S
C987        H991   1.111       .  S
C987        H992   1.111       .  S
C987        H993   1.086       .  S
C990        H994   1.110       .  S
C990        H995   1.110       .  S
C990        H996   1.111       .  S
C997        C998   1.397       .  A
C997       C1002   1.407       .  A
C997       H1004   1.085       .  S
C998        C999   1.406       .  A
C999       C1006   1.510       .  S
C999       C1000   1.402       .  A
C1000      C1001   1.423       .  A
C1000      H1005   1.073       .  S
C1001      C1002   1.444       .  A
C1002      C1003   1.514   1_545  S
C1003      H1007   1.111       .  S
C1003      H1008   1.105       .  S
C1003      H1009   1.107       .  S
C1006      H1010   1.111       .  S
C1006      H1011   1.108       .  S
C1006      H1012   1.111       .  S
C1013      C1014   1.396       .  A
C1013      C1018   1.412       .  A
C1013      H1020   1.085       .  S
C1014      C1015   1.408       .  A
C1015      C1022   1.510   1_556  S
C1015      C1016   1.396       .  A
C1016      C1017   1.423       .  A
C1017      C1018   1.448       .  A
C1018      C1019   1.513       .  S
C1019      H1023   1.109       .  S
C1019      H1024   1.105       .  S
C1019      H1025   1.105       .  S
C1022      H1026   1.109   1_554  S
C1022      H1027   1.111   1_554  S
C1029      C1030   1.422       .  A
C1029      C1034   1.396       .  A
C1029      H1036   1.075       .  S
C1030      C1031   1.441       .  A
C1032      H1037   1.084   1_554  S
C1033      C1034   1.402       .  A
C1034      C1035   1.511       .  S
C1035      H1039   1.111       .  S
C1035      H1040   1.110       .  S
C1035      H1041   1.110       .  S
C1038      H1042   1.110   1_554  S
C1038      H1043   1.100       .  S
C1038      H1044   1.110       .  S
C1045      C1046   1.429       .  A
C1045      C1050   1.405       .  A
C1045      H1052   1.082   1_565  S
C1046      C1047   1.451       .  A
C1047      C1054   1.515       .  S
C1047      C1048   1.405       .  A
C1048      C1049   1.390       .  A
C1048      H1053   1.085       .  S
C1049      C1050   1.398       .  A
C1050      C1051   1.505   1_565  S
C1051      H1055   1.110       .  S
C1051      H1056   1.110       .  S
C1051      H1057   1.111   1_545  S
C1054      H1058   1.103       .  S
C1054      H1059   1.106   1_455  S
C1054      H1060   1.111       .  S
C1061      C1062   1.399       .  A
C1061      C1066   1.399       .  A
C1061      H1068   1.084       .  S
C1062      C1063   1.413       .  A
C1063      C1070   1.507       .  S
C1063      C1064   1.409       .  A
C1064      C1065   1.421       .  A
C1064      H1069   1.080       .  S
C1065      C1066   1.439       .  A
C1066      C1067   1.519       .  S
C1067      H1071   1.111       .  S
C1067      H1072   1.105       .  S
C1067      H1073   1.105       .  S
C1070      H1074   1.110       .  S
C1070      H1075   1.109       .  S
C1070      H1076   1.111       .  S
C1077      C1078   1.420       .  A
C1077      C1082   1.407       .  A
C1077      H1084   1.075       .  S
C1078      C1079   1.441       .  A
C1079      C1080   1.403       .  A
C1080      C1081   1.397       .  A
C1080      H1085   1.084       .  S
C1081      C1082   1.409       .  A
C1082      C1083   1.508       .  S
C1083      H1087   1.109       .  S
C1083      H1088   1.110       .  S
C1083      H1089   1.109       .  S
C1086      H1090   1.103       .  S
C1086      H1091   1.111       .  S
C1086      H1092   1.107       .  S
