geometry optimzed in LAMMPS
_audit_creation_date              2020-11-30 
_audit_creation_method            'lammps2cif' 
_symmetry_space_group_name_H-M    'P1' 
_symmetry_Int_Tables_number       1 
_symmetry_cell_setting            triclinic 
loop_ 
_symmetry_equiv_pos_as_xyz 
  x,y,z 
_cell_length_a                    60.0551177 
_cell_length_b                    34.30530675331475 
_cell_length_c                    19.195527117464064 
_cell_angle_alpha                 90.64664395791922 
_cell_angle_beta                  89.08421951805751 
_cell_angle_gamma                 88.82309530047077 
loop_ 
_atom_site_label 
_atom_site_type_symbol 
_atom_site_fract_x 
_atom_site_fract_y 
_atom_site_fract_z 
_atom_site_charge 
In1        In  0.30371606  0.14214473  0.67553175     1.36900
C2          C  0.28363231  0.20426865  0.61281668     0.77100
O3          O  0.31506727  0.08299391  0.69235463    -0.61300
O4          O  0.29241838  0.09305182  0.60910650    -0.52200
C5          C  0.34826390  0.14502591  0.66227422     0.69800
O6          O  0.33556385  0.13720295  0.61243745    -0.47100
C7          C  0.27977955  0.12527020  0.79304800     0.74500
O8          O  0.29642555  0.20632625  0.66453379    -0.58900
O9          O  0.27359822  0.11750428  0.73219511    -0.49000
O10         O  0.28228947  0.17008853  0.58846208    -0.55400
C11         C  0.30301141  0.06877529  0.64609197     0.84700
O12         O  0.33792475  0.15535777  0.71768157    -0.57300
O13         O  0.29767380  0.14424166  0.79395915    -0.60600
In14       In  0.29544016  0.09854764  0.04842628     1.36900
C15         C  0.27939492  0.02876957  0.09432435     0.77100
O16         O  0.30122026  0.13594711  0.13981374    -0.61300
O17         O  0.27221167  0.14591084  0.07974566    -0.52200
C18         C  0.33959014  0.11419865  0.04360472     0.69800
O19         O  0.32963518  0.10230204  0.09740950    -0.47100
C20         C  0.27786884  0.11940529  0.92350481     0.74500
O21         O  0.29557935  0.03199457  0.05207439    -0.58900
O22         O  0.27216580  0.13613214  0.97987188    -0.49000
O23         O  0.27182514  0.06127936  0.11528977    -0.55400
C24         C  0.28498421  0.15829691  0.12589946     0.84700
O25         O  0.32727686  0.11544407  0.99115877    -0.57300
O26         O  0.29285844  0.09322750  0.93129419    -0.60600
C27         C  0.26432107  0.12111286  0.85658272    -0.02900
In28       In  0.22878883  0.21818041  0.77996469     1.36900
C29         C  0.24774096  0.15477263  0.84353634     0.77100
O30         O  0.23415787  0.21583553  0.66102721    -0.61300
O31         O  0.25788159  0.24431909  0.72089934    -0.52200
C32         C  0.18418771  0.21715884  0.78509993     0.69800
O33         O  0.19600298  0.22630438  0.83635573    -0.47100
C34         C  0.23170496  0.29001477  0.82195380     0.74500
O35         O  0.23465842  0.15320443  0.79264970    -0.58900
O36         O  0.24410044  0.26355305  0.84680149    -0.49000
O37         O  0.24954334  0.18890599  0.86731320    -0.55400
C38         C  0.25179115  0.23535348  0.66068566     0.84700
O39         O  0.19538115  0.20447157  0.73294483    -0.57300
O40         O  0.21693686  0.27875691  0.78108865    -0.60600
In41       In  0.23645491  0.26535130  0.40675713     1.36900
C42         C  0.25221916  0.33650489  0.37292895     0.77100
O43         O  0.23605236  0.25859533  0.52526394    -0.61300
O44         O  0.26332067  0.23345027  0.47049383    -0.52200
C45         C  0.19176478  0.26086270  0.40361915     0.69800
O46         O  0.20348210  0.24538784  0.45030197    -0.47100
C47         C  0.24473457  0.20379580  0.32991094     0.74500
O48         O  0.23932077  0.33015889  0.42398116    -0.58900
O49         O  0.25992559  0.22008081  0.36317269    -0.49000
O50         O  0.25631675  0.30655484  0.33607869    -0.55400
C51         C  0.25434241  0.23969279  0.52944708     0.84700
O52         O  0.20288986  0.28019792  0.36021951    -0.57300
O53         O  0.22711136  0.22374286  0.32458270    -0.60600
C54         C  0.26742578  0.23814883  0.59752515    -0.02900
In55       In  0.30270776  0.39291774  0.18306805     1.36900
C56         C  0.28388626  0.45673951  0.12216141     0.77100
O57         O  0.31234268  0.33269148  0.20126609    -0.61300
O58         O  0.28968746  0.34418898  0.11896859    -0.52200
C59         C  0.34681694  0.39247257  0.16725316     0.69800
O60         O  0.33380175  0.38346774  0.11878365    -0.47100
C61         C  0.27963211  0.37846383  0.30237754     0.74500
O62         O  0.29763888  0.45783253  0.17140412    -0.58900
O63         O  0.27252123  0.37185928  0.24215431    -0.49000
O64         O  0.28106348  0.42262817  0.09903658    -0.55400
C65         C  0.29955461  0.31914072  0.15634744     0.84700
O66         O  0.33705467  0.40571993  0.22164874    -0.57300
O67         O  0.29821002  0.39531498  0.30195663    -0.60600
In68       In  0.29740675  0.34552930  0.55230473     1.36900
C69         C  0.28023044  0.27588102  0.59077789     0.77100
O70         O  0.30765297  0.38133090  0.64336439    -0.61300
O71         O  0.27848377  0.39742117  0.58862120    -0.52200
C72         C  0.34186869  0.35074681  0.54017364     0.69800
O73         O  0.33186966  0.34471608  0.59723126    -0.47100
C74         C  0.27837365  0.37270318  0.43341544     0.74500
O75         O  0.29484662  0.27998292  0.54373538    -0.58900
O76         O  0.27002499  0.37868537  0.49342466    -0.49000
O77         O  0.27498798  0.30733537  0.62136258    -0.55400
C78         C  0.29231591  0.40626666  0.63428336     0.84700
O79         O  0.32911435  0.35205623  0.48868907    -0.57300
O80         O  0.29662238  0.35363386  0.43491113    -0.60600
C81         C  0.26465476  0.37475886  0.36705091    -0.02900
In82       In  0.23732501  0.01194358  0.90713948     1.36900
C83         C  0.25208316  0.08269600  0.86470909     0.77100
O84         O  0.23601808  0.00701855  0.02620610    -0.61300
O85         O  0.26447059  0.98406563  0.97531670    -0.52200
C86         C  0.19307428  0.00198461  0.91452634     0.69800
O87         O  0.20167838  0.03433393  0.90054640    -0.47100
C88         C  0.24599855  0.45192331  0.84443762     0.74500
O89         O  0.23918593  0.07741094  0.91624740    -0.58900
O90         O  0.25873446  0.46253099  0.89217880    -0.49000
O91         O  0.25671807  0.05172228  0.83140273    -0.55400
C92         C  0.25470075  0.99005721  0.03306983     0.84700
O93         O  0.20477592  0.50943416  0.97547931    -0.57300
O94         O  0.23184816  0.47711464  0.82520504    -0.60600
In95       In  0.23143118  0.47498439  0.29828506     1.36900
C96         C  0.24859269  0.40924528  0.35616067     0.77100
O97         O  0.23365870  0.47603165  0.17751073    -0.61300
O98         O  0.26120122  0.49360310  0.23469783    -0.52200
C99         C  0.18694309  0.47698839  0.30661424     0.69800
O100        O  0.19912084  0.48436905  0.35821380    -0.47100
C101        C  0.23599147  0.04053992  0.34059786     0.74500
O102        O  0.23647241  0.41008515  0.30296529    -0.58900
O103        O  0.25208099  0.01679476  0.33065442    -0.49000
O104        O  0.24965755  0.44189888  0.38652531    -0.55400
C105        C  0.25315409  0.48925870  0.17530517     0.84700
O106        O  0.19762010  0.46558380  0.25256649    -0.57300
O107        O  0.22225257  0.53684287  0.31225031    -0.60600
C108        C  0.26792420  0.49138067  0.10988602    -0.02900
In109      In  0.55313007  0.21284201  0.90249070     1.36900
C110        C  0.53493732  0.14873186  0.84206665     0.77100
O111        O  0.54935828  0.20940026  0.02142244    -0.61300
O112        O  0.52228977  0.23111472  0.96393943    -0.52200
C113        C  0.59749235  0.21474199  0.88524133     0.69800
O114        O  0.58408240  0.22291979  0.83713910    -0.47100
C115        C  0.54528563  0.28710706  0.88704657     0.74500
O116        O  0.54811755  0.14796304  0.89287745    -0.58900
O117        O  0.53673641  0.26230073  0.84654844    -0.49000
O118        O  0.53280013  0.18229606  0.81618561    -0.55400
C119        C  0.52996988  0.22475784  0.02342679     0.84700
O120        O  0.58813769  0.20137618  0.93917406    -0.57300
O121        O  0.55984578  0.27359454  0.92710238    -0.60600
In122      In  0.54759006  0.25187491  0.27753163     1.36900
C123        C  0.53116372  0.32316737  0.32092228     0.77100
O124        O  0.54489635  0.25314292  0.16012269    -0.61300
O125        O  0.52332497  0.21530181  0.21214090    -0.52200
C126        C  0.59206151  0.24369781  0.26894789     0.69800
O127        O  0.58187735  0.25646976  0.32277742    -0.47100
C128        C  0.54031767  0.19186141  0.35638638     0.74500
O129        O  0.54518424  0.31777239  0.27203826    -0.58900
O130        O  0.52532676  0.20673877  0.31928231    -0.49000
O131        O  0.52605683  0.29204644  0.35057865    -0.55400
C132        C  0.52930320  0.22905520  0.15444026     0.84700
O133        O  0.57948992  0.23637819  0.21872514    -0.57300
O134        O  0.55801772  0.21076687  0.35945678    -0.60600
C135        C  0.51519291  0.22799974  0.08884187    -0.02900
In136      In  0.48765480  0.08770622  0.64055163     1.36900
C137        C  0.50322541  0.01553347  0.59650990     0.77100
O138        O  0.48152907  0.12369816  0.54847260    -0.61300
O139        O  0.50956791  0.13544214  0.61142440    -0.52200
C140        C  0.44334662  0.10454149  0.65006634     0.69800
O141        O  0.45501059  0.09516569  0.70147354    -0.47100
C142        C  0.50558826  0.11329254  0.76285775     0.74500
O143        O  0.48755074  0.02109392  0.64016840    -0.58900
O144        O  0.51387743  0.12052135  0.70383732    -0.49000
O145        O  0.51027420  0.04683364  0.57230383    -0.55400
C146        C  0.49699338  0.14652718  0.56326274     0.84700
O147        O  0.45413950  0.10301924  0.59316782    -0.57300
O148        O  0.48818155  0.09326080  0.75876496    -0.60600
In149      In  0.47928506  0.13377049  0.01275836     1.36900
C150        C  0.49913571  0.19488130  0.07520727     0.77100
O151        O  0.47124259  0.07370468  0.98614976    -0.61300
O152        O  0.49178600  0.08374358  0.07422301    -0.52200
C153        C  0.43504352  0.14140072  0.03361002     0.69800
O154        O  0.44827622  0.12789723  0.07818523    -0.47100
C155        C  0.50355500  0.11963956  0.89416930     0.74500
O156        O  0.48572221  0.19736168  0.02516389    -0.58900
O157        O  0.51082245  0.11536611  0.95483095    -0.49000
O158        O  0.50108549  0.16079993  0.09882659    -0.55400
C159        C  0.48389108  0.05945971  0.03145826     0.84700
O160        O  0.44475374  0.15347150  0.97916253    -0.57300
O161        O  0.48385575  0.13367648  0.89347722    -0.60600
C162        C  0.51891142  0.11501690  0.82995274    -0.02900
In163      In  0.48555410  0.33725721  0.14124990     1.36900
C164        C  0.50212085  0.26634183  0.09905140     0.77100
O165        O  0.50942248  0.37780880  0.09519423    -0.61300
O166        O  0.47644966  0.37661781  0.05576922    -0.52200
C167        C  0.44121972  0.35019028  0.15143894     0.69800
O168        O  0.45013352  0.32651792  0.10803519    -0.47100
C169        C  0.50412744  0.35946701  0.26369114     0.74500
O170        O  0.48914741  0.27188098  0.15085011    -0.58900
O171        O  0.50988163  0.37345382  0.20599899    -0.49000
O172        O  0.50561984  0.29686644  0.06536348    -0.55400
C173        C  0.49468467  0.39400104  0.05882058     0.84700
O174        O  0.45502103  0.36574104  0.19128926    -0.57300
O175        O  0.48872945  0.33494075  0.25840919    -0.60600
In176      In  0.48056550  0.38205534  0.51523951     1.36900
C177        C  0.49947848  0.44423153  0.57990279     0.77100
O178        O  0.47294070  0.32203283  0.49157046    -0.61300
O179        O  0.49214605  0.33338849  0.58208710    -0.52200
C180        C  0.43641220  0.38402890  0.52995225     0.69800
O181        O  0.44930752  0.37474908  0.57867304    -0.47100
C182        C  0.50358731  0.36656554  0.39474937     0.74500
O183        O  0.48443321  0.44679332  0.53457544    -0.58900
O184        O  0.51117315  0.36070138  0.45458387    -0.49000
O185        O  0.50374525  0.40943925  0.59664294    -0.55400
C186        C  0.48449224  0.30849447  0.54003316     0.84700
O187        O  0.44624489  0.39614721  0.47584068    -0.57300
O188        O  0.48464214  0.38351031  0.39621512    -0.60600
C189        C  0.51816954  0.36174083  0.32919737    -0.02900
In190      In  0.54643837  0.00311218  0.78193779     1.36900
C191        C  0.53135404  0.07577549  0.82297348     0.77100
O192        O  0.54470119  0.00346835  0.66426310    -0.61300
O193        O  0.52265543  0.96606430  0.71543235    -0.52200
C194        C  0.59094148  0.99073603  0.78375221     0.69800
O195        O  0.57961787  0.00360440  0.83515963    -0.47100
C196        C  0.53612615  0.44632074  0.86525186     0.74500
O197        O  0.54564409  0.06924786  0.77515445    -0.58900
O198        O  0.55588684  0.45781305  0.86094879    -0.49000
O199        O  0.52539259  0.04514657  0.85267042    -0.55400
C200        C  0.52917292  0.97920351  0.65796142     0.84700
O201        O  0.58100324  0.48005892  0.73287347    -0.57300
O202        O  0.52204923  0.46563274  0.83111757    -0.60600
In203      In  0.55181689  0.45934123  0.40134279     1.36900
C204        C  0.53385319  0.39579823  0.33928752     0.77100
O205        O  0.54888850  0.45705210  0.52100529    -0.61300
O206        O  0.52152346  0.47861288  0.46508889    -0.52200
C207        C  0.59601127  0.46073880  0.38486148     0.69800
O208        O  0.58289794  0.46847021  0.33569978    -0.47100
C209        C  0.55333596  0.03025932  0.38883211     0.74500
O210        O  0.54862758  0.39435072  0.38552620    -0.58900
O211        O  0.54686721  0.00516577  0.34510529    -0.49000
O212        O  0.52954722  0.43009545  0.31967946    -0.55400
C213        C  0.52972440  0.47312706  0.52421777     0.84700
O214        O  0.58647433  0.44816054  0.43908368    -0.57300
O215        O  0.55890178  0.51929280  0.42391127    -0.60600
C216        C  0.51557579  0.47775763  0.59082527    -0.02900
In217      In  0.05501471  0.47989546  0.91935717     1.36900
C218        C  0.03536606  0.41859641  0.85523271     0.77100
O219        O  0.04953528  0.47908468  0.03743206    -0.61300
O220        O  0.02347276  0.50025414  0.97507487    -0.52200
C221        C  0.09921231  0.47093824  0.91605340     0.69800
O222        O  0.08829947  0.48211411  0.86385546    -0.47100
C223        C  0.04661223  0.05490760  0.88796150     0.74500
O224        O  0.04837743  0.41599947  0.90622361    -0.58900
O225        O  0.05957772  0.04101262  0.93231414    -0.49000
O226        O  0.03388611  0.45269108  0.83152028    -0.55400
C227        C  0.03034496  0.49488952  0.03594955     0.84700
O228        O  0.08732257  0.46174819  0.96786509    -0.57300
O229        O  0.04471132  0.52936457  0.85151308    -0.60600
In230      In  0.04682958  0.02534086  0.27641555     1.36900
C231        C  0.03149434  0.09703014  0.32099952     0.77100
O232        O  0.04333115  0.02824349  0.15973847    -0.61300
O233        O  0.02270016  0.98842960  0.21107591    -0.52200
C234        C  0.09102678  0.01214729  0.26900842     0.69800
O235        O  0.08158875  0.03298329  0.31583577    -0.47100
C236        C  0.03399519  0.46946544  0.37460671     0.74500
O237        O  0.04540099  0.09152597  0.27163734    -0.58900
O238        O  0.02041115  0.48750187  0.33671334    -0.49000
O239        O  0.02615470  0.06587761  0.35028068    -0.55400
C240        C  0.02818069  0.00321348  0.15384455     0.84700
O241        O  0.07790444  0.49142967  0.25241792    -0.57300
O242        O  0.05304420  0.48394172  0.37864241    -0.60600
C243        C  0.01508775  0.50036220  0.09961313    -0.02900
In244      In  0.98128526  0.40281927  0.02670959     1.36900
C245        C  0.99883826  0.46700125  0.08796239     0.77100
O246        O  0.00018303  0.35458640  0.07830324    -0.61300
O247        O  0.97192826  0.34214429  0.01694609    -0.52200
C248        C  0.93692698  0.40024402  0.03631658     0.69800
O249        O  0.94931636  0.39359482  0.08791361    -0.47100
C250        C  0.00410581  0.38932774  0.90533342     0.74500
O251        O  0.98600902  0.46761047  0.03631605    -0.58900
O252        O  0.01152986  0.38193546  0.96460863    -0.49000
O253        O  0.00055673  0.43369519  0.11496787    -0.55400
C254        C  0.98891091  0.32923127  0.04679649     0.84700
O255        O  0.94726230  0.41265948  0.98344831    -0.57300
O256        O  0.98516128  0.40622095  0.90763499    -0.60600
In257      In  0.98724663  0.36378073  0.65006803     1.36900
C258        C  0.00206809  0.29321794  0.59807405     0.77100
O259        O  0.98076478  0.40496907  0.56643524    -0.61300
O260        O  0.01107907  0.40921867  0.62267589    -0.52200
C261        C  0.94266706  0.37621717  0.65574716     0.69800
O262        O  0.95446921  0.38156349  0.60198353    -0.47100
C263        C  0.00521253  0.38647061  0.77429395     0.74500
O264        O  0.98730685  0.29769364  0.64488631    -0.58900
O265        O  0.98803098  0.36599847  0.76869544    -0.49000
O266        O  0.00860113  0.32498780  0.57451603    -0.55400
C267        C  0.99808066  0.42393716  0.57875824     0.84700
O268        O  0.95371780  0.36425736  0.70686918    -0.57300
O269        O  0.01297512  0.39629315  0.71610190    -0.60600
C270        C  0.01899273  0.38595929  0.84033550    -0.02900
In271      In  0.04553147  0.27516417  0.77938674     1.36900
C272        C  0.03113241  0.34676497  0.82934771     0.77100
O273        O  0.04567739  0.27366638  0.66062588    -0.61300
O274        O  0.01947940  0.24574798  0.71251823    -0.52200
C275        C  0.08961829  0.25840390  0.77491935     0.69800
O276        O  0.07869929  0.26647691  0.72127718    -0.47100
C277        C  0.03323472  0.21466963  0.85063725     0.74500
O278        O  0.04609597  0.34173198  0.78317636    -0.58900
O279        O  0.02196241  0.22791087  0.80126613    -0.49000
O280        O  0.02407297  0.31517612  0.85228440    -0.55400
C281        C  0.02801460  0.25447128  0.65462151     0.84700
O282        O  0.07808136  0.26047240  0.83029789    -0.57300
O283        O  0.04971365  0.23487917  0.86737159    -0.60600
In284      In  0.05257754  0.23450504  0.40290500     1.36900
C285        C  0.03400713  0.16991708  0.34439614     0.77100
O286        O  0.04894522  0.23528608  0.52214976    -0.61300
O287        O  0.02188899  0.25525323  0.46291692    -0.52200
C288        C  0.09686243  0.23209602  0.38947203     0.69800
O289        O  0.08433679  0.24377447  0.34126904    -0.47100
C290        C  0.04615954  0.30842445  0.38169274     0.74500
O291        O  0.04601140  0.16997335  0.39799241    -0.58900
O292        O  0.03689812  0.28319755  0.34372232    -0.49000
O293        O  0.03305552  0.20280470  0.31543190    -0.55400
C294        C  0.02955750  0.25052543  0.52295151     0.84700
O295        O  0.08660495  0.21840045  0.44141222    -0.57300
O296        O  0.06083774  0.29519935  0.42165190    -0.60600
C297        C  0.01464951  0.25459790  0.58796599    -0.02900
In298      In  0.98857014  0.11246130  0.13635229     1.36900
C299        C  0.00253341  0.04029365  0.09376021     0.77100
O300        O  0.98092960  0.16336665  0.07387692    -0.61300
O301        O  0.01522751  0.14640906  0.08359644    -0.52200
C302        C  0.94429664  0.11886209  0.12867438     0.69800
O303        O  0.95647809  0.10917938  0.07692084    -0.47100
C304        C  0.00504940  0.13399465  0.26310114     0.74500
O305        O  0.98835870  0.04702395  0.14166610    -0.58900
O306        O  0.01053977  0.15032081  0.20752154    -0.49000
O307        O  0.00904965  0.07068584  0.06435115    -0.55400
C308        C  0.00108315  0.17112294  0.06257734     0.84700
O309        O  0.95493360  0.12454471  0.18392420    -0.57300
O310        O  0.99069361  0.10804478  0.25390858    -0.60600
In311      In  0.98164341  0.15642609  0.51723200     1.36900
C312        C  0.99877471  0.22121903  0.57572731     0.77100
O313        O  0.00534827  0.11109232  0.55497076    -0.61300
O314        O  0.97052735  0.10073821  0.56086342    -0.52200
C315        C  0.93695746  0.15436484  0.51494992     0.69800
O316        O  0.94781212  0.15704963  0.57076391    -0.47100
C317        C  0.00303543  0.13854710  0.39372474     0.74500
O318        O  0.98620254  0.22122676  0.52367413    -0.58900
O319        O  0.00900298  0.12625090  0.45184068    -0.49000
O320        O  0.00038846  0.18848847  0.60419629    -0.55400
C321        C  0.99008153  0.08684122  0.56267279     0.84700
O322        O  0.94903055  0.15545993  0.46050807    -0.57300
O323        O  0.98596996  0.16080612  0.39800970    -0.60600
C324        C  0.01847544  0.13563653  0.32990020    -0.02900
In325      In  0.80240179  0.39826553  0.64467154     1.36900
C326        C  0.78217897  0.46137340  0.58254086     0.77100
O327        O  0.81807699  0.34471059  0.59971909    -0.61300
O328        O  0.78312705  0.35441330  0.58843150    -0.52200
C329        C  0.84672069  0.40252550  0.65027588     0.69800
O330        O  0.83425733  0.40393914  0.70406071    -0.47100
C331        C  0.78294618  0.37684053  0.76970529     0.74500
O332        O  0.79972191  0.46315155  0.61757963    -0.58900
O333        O  0.78062307  0.35828657  0.71391287    -0.49000
O334        O  0.77574866  0.42696330  0.57582659    -0.55400
C335        C  0.79938062  0.33062978  0.58746052     0.84700
O336        O  0.83634418  0.40101407  0.59343421    -0.57300
O337        O  0.79552792  0.40575111  0.76213665    -0.60600
In338      In  0.79943036  0.34630775  0.02468725     1.36900
C339        C  0.78288642  0.27687977  0.06797128     0.77100
O340        O  0.80697209  0.39359745  0.09839521    -0.61300
O341        O  0.77313355  0.38625944  0.06958333    -0.52200
C342        C  0.84416214  0.35308672  0.02613549     0.69800
O343        O  0.83310956  0.33990565  0.07678906    -0.47100
C344        C  0.78176041  0.36863768  0.89997215     0.74500
O345        O  0.79647419  0.28065288  0.01776251    -0.58900
O346        O  0.77784108  0.38704471  0.95582056    -0.49000
O347        O  0.77881413  0.30840672  0.10012301    -0.55400
C348        C  0.78725610  0.40695490  0.09978315     0.84700
O349        O  0.83243082  0.36031039  0.97370849    -0.57300
O350        O  0.79542018  0.34037069  0.90746854    -0.60600
C351        C  0.76777989  0.37237200  0.83424860    -0.02900
In352      In  0.73139982  0.22023676  0.25944480     1.36900
C353        C  0.75076142  0.15658990  0.31777742     0.77100
O354        O  0.73525708  0.22209408  0.14034738    -0.61300
O355        O  0.76172650  0.24177000  0.20072223    -0.52200
C356        C  0.68743013  0.21438154  0.26838269     0.69800
O357        O  0.69914981  0.22365326  0.31992993    -0.47100
C358        C  0.73551680  0.29311327  0.29067082     0.74500
O359        O  0.73899038  0.15617392  0.26370561    -0.58900
O360        O  0.71960515  0.28078880  0.25551334    -0.49000
O361        O  0.75091983  0.18955317  0.34747000    -0.55400
C362        C  0.75429714  0.23719109  0.14034805     0.84700
O363        O  0.69851557  0.20503131  0.21398077    -0.57300
O364        O  0.74699480  0.26721539  0.32096392    -0.60600
In365      In  0.73642502  0.26674601  0.88706819     1.36900
C366        C  0.75393573  0.33551237  0.84189876     0.77100
O367        O  0.74089405  0.27157516  0.00403147    -0.61300
O368        O  0.75939961  0.22669611  0.95281311    -0.52200
C369        C  0.69178333  0.25450947  0.89277174     0.69800
O370        O  0.70483748  0.24579188  0.94110513    -0.47100
C371        C  0.74469140  0.20722126  0.80704569     0.74500
O372        O  0.73931307  0.33281094  0.88967327    -0.58900
O373        O  0.75872385  0.21908012  0.84998016    -0.49000
O374        O  0.75903551  0.30303720  0.81449489    -0.55400
C375        C  0.75509340  0.24384959  0.00986839     0.84700
O376        O  0.70125907  0.27263697  0.84419900    -0.57300
O377        O  0.72856417  0.23032834  0.79609451    -0.60600
C378        C  0.76925576  0.23997249  0.07551484    -0.02900
In379      In  0.80383310  0.13952999  0.14475748     1.36900
C380        C  0.78483175  0.20453996  0.08703579     0.77100
O381        O  0.81341007  0.07811933  0.15371641    -0.61300
O382        O  0.78727004  0.09287072  0.08433477    -0.52200
C383        C  0.84813632  0.14194727  0.13193933     0.69800
O384        O  0.83588510  0.13265893  0.08158378    -0.47100
C385        C  0.78196357  0.12492429  0.26722673     0.74500
O386        O  0.79764954  0.20422183  0.13866997    -0.58900
O387        O  0.77469430  0.11724337  0.20775690    -0.49000
O388        O  0.78303893  0.17124341  0.05928865    -0.55400
C389        C  0.79748573  0.06652072  0.11750032     0.84700
O390        O  0.83742743  0.15213028  0.18641375    -0.57300
O391        O  0.80029233  0.14247118  0.26483972    -0.60600
In392      In  0.79763884  0.10616788  0.52716772     1.36900
C393        C  0.78229550  0.03694781  0.57881316     0.77100
O394        O  0.77288550  0.15284766  0.55078006    -0.61300
O395        O  0.80243420  0.14991973  0.61048777    -0.52200
C396        C  0.84189020  0.12092781  0.52390061     0.69800
O397        O  0.83028241  0.11838321  0.46991556    -0.47100
C398        C  0.78038428  0.12225010  0.39917170     0.74500
O399        O  0.79857236  0.03986259  0.53697405    -0.58900
O400        O  0.77485869  0.14115844  0.45334918    -0.49000
O401        O  0.77445096  0.06971118  0.59761934    -0.55400
C402        C  0.78552319  0.16964106  0.59265624     0.84700
O403        O  0.83107376  0.11403321  0.57903788    -0.57300
O404        O  0.79523759  0.09629030  0.41011311    -0.60600
C405        C  0.76694699  0.12259832  0.33199990    -0.02900
In406      In  0.73408705  0.47408536  0.76903670     1.36900
C407        C  0.75216176  0.40765796  0.82321396     0.77100
O408        O  0.73335719  0.48164916  0.64915082    -0.61300
O409        O  0.76296752  0.49274224  0.70149930    -0.52200
C410        C  0.68971811  0.47098296  0.77743251     0.69800
O411        O  0.70087448  0.46072642  0.72367231    -0.47100
C412        C  0.73152136  0.04545933  0.79946965     0.74500
O413        O  0.74085657  0.40955821  0.76831750    -0.58900
O414        O  0.74304681  0.02084535  0.83310697    -0.49000
O415        O  0.75240160  0.43959914  0.85637126    -0.55400
C416        C  0.75322515  0.49283374  0.64406166     0.84700
O417        O  0.70156220  0.48092276  0.82857133    -0.57300
O418        O  0.72393910  0.53489872  0.79181479    -0.60600
In419      In  0.73924223  0.01531952  0.39041503     1.36900
C420        C  0.75432374  0.08468720  0.34077075     0.77100
O421        O  0.74189356  0.02640467  0.50652773    -0.61300
O422        O  0.76220298  0.98124539  0.46330698    -0.52200
C423        C  0.69537461  0.99985032  0.40022416     0.69800
O424        O  0.70847311  0.99745755  0.45056202    -0.47100
C425        C  0.74819340  0.45363953  0.31720809     0.74500
O426        O  0.76125298  0.05215669  0.31767244    -0.58900
O427        O  0.76044274  0.47146231  0.35901849    -0.49000
O428        O  0.73887116  0.08164926  0.38553924    -0.55400
C429        C  0.75660746  0.00027090  0.51736138     0.84700
O430        O  0.70066320  0.51051266  0.33075132    -0.57300
O431        O  0.73009699  0.47096665  0.30291765    -0.60600
C432        C  0.76637805  0.49661557  0.57581066    -0.02900
C433        C  0.72272547  0.15221873  0.77204054    -0.09600
C434        C  0.74395239  0.16633705  0.78601309     0.06600
C435        C  0.76133922  0.13997167  0.80254331    -0.03400
C436        C  0.75668327  0.10064320  0.81080780    -0.07800
C437        C  0.73498511  0.08727083  0.80212805     0.05700
C438        C  0.71796208  0.11334721  0.78183422    -0.02900
Br439      Br  0.68737443  0.09869388  0.77260073    -0.02500
H440        H  0.70904937  0.17204969  0.76023285     0.09600
H441        H  0.77013371  0.08035029  0.82263719     0.07600
Br442      Br  0.79152615  0.15593781  0.81500412    -0.03000
C443        C  0.75649420  0.34736931  0.34015597    -0.09600
C444        C  0.74155713  0.33413862  0.29045344     0.06600
C445        C  0.73434834  0.35967348  0.23758679    -0.03400
C446        C  0.73972907  0.39878511  0.24139024    -0.07800
C447        C  0.75222848  0.41298439  0.29657342     0.05700
C448        C  0.76222277  0.38641285  0.34299097    -0.02900
Br449      Br  0.78239907  0.40097259  0.41479780    -0.02500
H450        H  0.76328347  0.32752573  0.37829232     0.09600
H451        H  0.73265654  0.41877785  0.20397166     0.07600
Br452      Br  0.71708567  0.34419105  0.15870754    -0.03000
C453        C  0.80181636  0.00144948  0.16776303    -0.09600
C454        C  0.79013075  0.02612869  0.12246518     0.06600
C455        C  0.77068741  0.01249017  0.09072929    -0.03400
C456        C  0.76896209  0.46979497  0.07811098    -0.07800
C457        C  0.78244675  0.44706264  0.12169988     0.05700
C458        C  0.79673052  0.46538037  0.16816307    -0.02900
Br459      Br  0.81304100  0.43692639  0.23695199    -0.02500
H460        H  0.81571979  0.01202978  0.19729967     0.09600
H461        H  0.75762443  0.45590986  0.04264330     0.07600
Br462      Br  0.75112099  0.04437231  0.03596028    -0.03000
C463        C  0.77756761  0.27438142  0.55345525    -0.09600
C464        C  0.79574641  0.28906416  0.58898556     0.06600
C465        C  0.80660435  0.26593111  0.63907195    -0.03400
C466        C  0.80054900  0.22748837  0.64727939    -0.07800
C467        C  0.78382953  0.21150891  0.60656399     0.05700
C468        C  0.77116450  0.23608562  0.56294893    -0.02900
Br469      Br  0.74516748  0.21992149  0.51422392    -0.02500
H470        H  0.76807797  0.29301106  0.51906596     0.09600
H471        H  0.80996029  0.20934220  0.68263407     0.07600
Br472      Br  0.82883750  0.28499821  0.70143664    -0.03000
C473        C  0.89985609  0.15500372  0.57611460    -0.09600
C474        C  0.91236509  0.14819770  0.51445722     0.06600
C475        C  0.90128116  0.13287784  0.45591306    -0.03400
C476        C  0.87838793  0.12530099  0.45993968    -0.07800
C477        C  0.86601468  0.13116564  0.52211812     0.05700
C478        C  0.87708561  0.14654133  0.58063228    -0.02900
Br479      Br  0.86225885  0.15760078  0.66825101    -0.02500
H480        H  0.90790959  0.16657854  0.62178570     0.09600
H481        H  0.87037082  0.11333368  0.41452366     0.07600
Br482      Br  0.91652553  0.11794601  0.37070252    -0.03000
C483        C  0.90926344  0.14489967  0.18187305    -0.09600
C484        C  0.91977341  0.12501934  0.12577901     0.06600
C485        C  0.90663283  0.11278704  0.06939903    -0.03400
C486        C  0.88348029  0.11964426  0.07158626    -0.07800
C487        C  0.87292428  0.13881230  0.12880325     0.05700
C488        C  0.88629990  0.15203738  0.18391716    -0.02900
Br489      Br  0.87491485  0.18085764  0.26368745    -0.02500
H490        H  0.91904812  0.15552288  0.22474073     0.09600
H491        H  0.87362971  0.10917123  0.02873615     0.07600
Br492      Br  0.91884691  0.08569336  0.98889024    -0.03000
C493        C  0.97904797  0.02377534  0.51845621    -0.09600
C494        C  0.99433649  0.04498628  0.55723481     0.06600
C495        C  0.01430413  0.02681209  0.57816138    -0.03400
C496        C  0.01243201  0.48914909  0.59730046    -0.07800
C497        C  0.00060837  0.46354353  0.55463600     0.05700
C498        C  0.98638787  0.47843425  0.50376953    -0.02900
Br499      Br  0.97173540  0.44644289  0.43634357    -0.02500
H500        H  0.96451667  0.03811800  0.49676560     0.09600
H501        H  0.02382166  0.47795185  0.63582951     0.07600
Br502      Br  0.03724401  0.05432927  0.62540541    -0.03000
C503        C  0.88077889  0.37691489  0.70753027    -0.09600
C504        C  0.87137302  0.39906739  0.65392000     0.06600
C505        C  0.88561281  0.41434767  0.60239343    -0.03400
C506        C  0.90865543  0.40694187  0.60480918    -0.07800
C507        C  0.91810755  0.38399933  0.65756529     0.05700
C508        C  0.90377493  0.36891610  0.70944038    -0.02900
Br509      Br  0.91398650  0.33480086  0.78142289    -0.02500
H510        H  0.87003801  0.36427659  0.74676478     0.09600
H511        H  0.91925185  0.41920516  0.56481886     0.07600
Br512      Br  0.87465588  0.44658712  0.52880270    -0.03000
C513        C  0.99218831  0.22440952  0.98691168    -0.09600
C514        C  0.00670455  0.20910337  0.03603799     0.06600
C515        C  0.01901016  0.23441739  0.07803029    -0.03400
C516        C  0.01339309  0.27399739  0.07970482    -0.07800
C517        C  0.99603409  0.28842061  0.03878286     0.05700
C518        C  0.98662154  0.26379683  0.98779773    -0.02900
Br519      Br  0.96525824  0.28024169  0.91972951    -0.02500
H520        H  0.98315542  0.20492857  0.95318586     0.09600
H521        H  0.02180193  0.29303723  0.11570570     0.07600
Br522      Br  0.04118933  0.21616476  0.14132803    -0.03000
C523        C  0.90446144  0.36436954  0.08555635    -0.09600
C524        C  0.91282159  0.39017449  0.03535610     0.06600
C525        C  0.89858008  0.40183602  0.98105332    -0.03400
C526        C  0.87676591  0.38823109  0.97849366    -0.07800
C527        C  0.86828245  0.36288254  0.02896557     0.05700
C528        C  0.88260264  0.35048132  0.08259255    -0.02900
Br529      Br  0.87399112  0.31302168  0.15106534    -0.02500
H530        H  0.91521204  0.35390062  0.12640593     0.09600
H531        H  0.86617516  0.39834319  0.93696266     0.07600
Br532      Br  0.90729095  0.43706833  0.90895631    -0.03000
C533        C  0.04802658  0.37214275  0.44095917    -0.09600
C534        C  0.03930045  0.34965098  0.38630625     0.06600
C535        C  0.02357604  0.36676149  0.34174339    -0.03400
C536        C  0.01873671  0.40644870  0.34825008    -0.07800
C537        C  0.03006917  0.42968537  0.39620254     0.05700
C538        C  0.04366195  0.41197408  0.44590792    -0.02900
Br539      Br  0.05836038  0.44115907  0.51704793    -0.02500
H540        H  0.05912241  0.35914735  0.47853550     0.09600
H541        H  0.00814192  0.41982793  0.30965952     0.07600
Br542      Br  0.00977427  0.33947198  0.26647503    -0.03000
C543        C  0.02195142  0.10884829  0.84959874    -0.09600
C544        C  0.03999275  0.09628971  0.88973424     0.06600
C545        C  0.05047650  0.12346741  0.93384744    -0.03400
C546        C  0.04535358  0.16283664  0.92774369    -0.07800
C547        C  0.02994017  0.17577171  0.87895481     0.05700
C548        C  0.01646416  0.14841403  0.84516990    -0.02900
Br549      Br  0.99117126  0.16284442  0.79025121    -0.02500
H550        H  0.01242400  0.08800490  0.82024893     0.09600
H551        H  0.05494685  0.18361961  0.95705870     0.07600
Br552      Br  0.07299136  0.11067412  0.00055900    -0.03000
C553        C  0.63764088  0.96944520  0.46638625    -0.09600
C554        C  0.62019932  0.46970549  0.38297613     0.06600
C555        C  0.63318415  0.46994455  0.32103718    -0.03400
C556        C  0.65550565  0.48171735  0.32275470    -0.07800
C557        C  0.67173795  0.98696281  0.40356669     0.05700
C558        C  0.65981130  0.98206153  0.46702806    -0.02900
Br559      Br  0.67229714  0.99368754  0.55635594    -0.02500
H560        H  0.62858985  0.96749485  0.51546213     0.09600
H561        H  0.66529272  0.48079793  0.27486072     0.07600
Br562      Br  0.62168526  0.45285587  0.23335052    -0.03000
C563        C  0.62827144  0.46568697  0.72749861    -0.09600
C564        C  0.61537778  0.98249177  0.78656288     0.06600
C565        C  0.62920827  0.00208940  0.83382839    -0.03400
C566        C  0.65220592  0.99424283  0.83334548    -0.07800
C567        C  0.66483241  0.47370275  0.77944004     0.05700
C568        C  0.65140555  0.45872091  0.72581096    -0.02900
Br569      Br  0.66311882  0.42710900  0.64993190    -0.02500
H570        H  0.61845369  0.45410529  0.68548718     0.09600
H571        H  0.66253752  0.01088865  0.86804606     0.07600
Br572      Br  0.61823557  0.04229005  0.89670832    -0.03000
C573        C  0.47669136  0.99293934  0.98977190    -0.09600
C574        C  0.48967486  0.01780239  0.03030158     0.06600
C575        C  0.50867375  0.00251663  0.06337661    -0.03400
C576        C  0.51004540  0.45814217  0.07766576    -0.07800
C577        C  0.49669941  0.43422266  0.03656503     0.05700
C578        C  0.48090919  0.45123656  0.99251343    -0.02900
Br579      Br  0.46309308  0.42134559  0.92997479    -0.02500
H580        H  0.46290335  0.00446081  0.96005950     0.09600
H581        H  0.52219596  0.44537701  0.11227602     0.07600
Br582      Br  0.53043478  0.03408857  0.10813063    -0.03000
C583        C  0.51282180  0.21138180  0.56982976    -0.09600
C584        C  0.49768677  0.18638435  0.53784746     0.06600
C585        C  0.47965778  0.20235404  0.50089590    -0.03400
C586        C  0.47569115  0.24224807  0.50375562    -0.07800
C587        C  0.48943928  0.26681011  0.54210344     0.05700
C588        C  0.50866960  0.25136008  0.57332990    -0.02900
Br589      Br  0.52974680  0.28243522  0.62230211    -0.02500
H590        H  0.52698104  0.19959630  0.59752714     0.09600
H591        H  0.46132617  0.25399704  0.47701706     0.07600
Br592      Br  0.45858398  0.17203881  0.45009911    -0.03000
C593        C  0.52554900  0.12637828  0.34539008    -0.09600
C594        C  0.53895239  0.15216292  0.38237589     0.06600
C595        C  0.55482550  0.13731544  0.42866014    -0.03400
C596        C  0.55915129  0.09738328  0.42980092    -0.07800
C597        C  0.54760874  0.07184639  0.38619500     0.05700
C598        C  0.52970459  0.08637234  0.34691858    -0.02900
Br599      Br  0.51017180  0.05392474  0.29451574    -0.02500
H600        H  0.51288086  0.13741371  0.31075025     0.09600
H601        H  0.57201430  0.08645033  0.46383231     0.07600
Br602      Br  0.57149433  0.17001003  0.48980159    -0.03000
C603        C  0.62711000  0.22694708  0.32984032    -0.09600
C604        C  0.61644555  0.23576291  0.26711148     0.06600
C605        C  0.62916762  0.23505621  0.20458683    -0.03400
C606        C  0.65202071  0.22609674  0.20610651    -0.07800
C607        C  0.66276562  0.21801769  0.26905937     0.05700
C608        C  0.64994170  0.21785785  0.33128442    -0.02900
Br609      Br  0.66228723  0.20372421  0.41937533    -0.02500
H610        H  0.61753950  0.22643616  0.37814614     0.09600
H611        H  0.66161133  0.22700332  0.15788469     0.07600
Br612      Br  0.61685519  0.24881234  0.11617954    -0.03000
C613        C  0.51706648  0.38492162  0.85658015    -0.09600
C614        C  0.53108480  0.40876284  0.89527723     0.06600
C615        C  0.54575551  0.39192490  0.94289336    -0.03400
C616        C  0.54935193  0.35185395  0.94106869    -0.07800
C617        C  0.53830360  0.32829253  0.89262271     0.05700
C618        C  0.52068548  0.34470275  0.85421436    -0.02900
Br619      Br  0.50194388  0.31522309  0.79406927    -0.02500
H620        H  0.50519320  0.39775461  0.82113490     0.09600
H621        H  0.56176725  0.33953530  0.97522187     0.07600
Br622      Br  0.56296770  0.42268817  0.00567803    -0.03000
C623        C  0.65387711  0.25953132  0.84007339    -0.09600
C624        C  0.66776731  0.24321934  0.89094544     0.06600
C625        C  0.65853266  0.21515742  0.93606953    -0.03400
C626        C  0.63595648  0.20552974  0.93144069    -0.07800
C627        C  0.62193855  0.22260066  0.88178781     0.05700
C628        C  0.63133727  0.24962740  0.83503274    -0.02900
Br629      Br  0.61432836  0.27598184  0.76516145    -0.02500
H630        H  0.66052090  0.28062862  0.80413274     0.09600
H631        H  0.62927070  0.18456596  0.96757553     0.07600
Br632      Br  0.67567352  0.18751993  0.00399835    -0.03000
C633        C  0.12582282  0.00421619  0.33545401    -0.09600
C634        C  0.11504538  0.00085887  0.27137792     0.06600
C635        C  0.12608896  0.46760990  0.25794141    -0.03400
C636        C  0.14911715  0.46035321  0.26386350    -0.07800
C637        C  0.16229586  0.48328525  0.30734768     0.05700
C638        C  0.14818444  0.99305388  0.34284481    -0.02900
Br639      Br  0.15995882  0.99828107  0.43493952    -0.02500
H640        H  0.11667028  0.01515964  0.38094350     0.09600
H641        H  0.15683649  0.43671853  0.23363656     0.07600
Br642      Br  0.11040274  0.43351884  0.19663556    -0.03000
C643        C  0.13384692  0.48155675  0.98242877    -0.09600
C644        C  0.12387069  0.47202523  0.91890825     0.05000
C645        C  0.13751309  0.46737238  0.85898256    -0.03400
C646        C  0.16017801  0.47614655  0.86183784    -0.07800
C647        C  0.16856479  0.99578720  0.91512198     0.05700
C648        C  0.15887596  0.96003653  0.93445019    -0.02900
Br649      Br  0.17577351  0.91634222  0.96881255    -0.02500
H650        H  0.12370564  0.48423316  0.02951157     0.09600
H651        H  0.17019917  0.47315668  0.81458565     0.07600
Br652      Br  0.12632975  0.44690511  0.77317805    -0.03000
C653        C  0.37744348  0.36668911  0.59773757    -0.09600
C654        C  0.36621100  0.35811786  0.53583188     0.06600
C655        C  0.37831630  0.35889877  0.47206037    -0.03400
C656        C  0.40080814  0.36925089  0.47139644    -0.07800
C657        C  0.41199382  0.37777889  0.53341485     0.05700
C658        C  0.40003998  0.37605735  0.59718580    -0.02900
Br659      Br  0.41327501  0.38712996  0.68547608    -0.02500
H660        H  0.36854749  0.36648025  0.64726770     0.09600
H661        H  0.40984564  0.36913036  0.42207999     0.07600
Br662      Br  0.36582157  0.34367886  0.38452425    -0.03000
C663        C  0.40919401  0.38826251  0.20438841    -0.09600
C664        C  0.41694512  0.36050763  0.15450799     0.06600
C665        C  0.40143083  0.34494091  0.10758568    -0.03400
C666        C  0.37900275  0.35688307  0.11187180    -0.07800
C667        C  0.37123766  0.38430092  0.16205259     0.05700
C668        C  0.38671313  0.40020224  0.20856210    -0.02900
Br669      Br  0.37861374  0.43923709  0.27742008    -0.02500
H670        H  0.42073019  0.40109994  0.24042534     0.09600
H671        H  0.36742018  0.34386365  0.07617953     0.07600
Br672      Br  0.40924356  0.30726338  0.03603644    -0.03000
C673        C  0.22321992  0.10444318  0.30267000    -0.09600
C674        C  0.23905869  0.08252999  0.33921601     0.06600
C675        C  0.25895941  0.09984512  0.35963378    -0.03400
C676        C  0.26200750  0.13934129  0.34717624    -0.07800
C677        C  0.24542126  0.16192147  0.31466201     0.05700
C678        C  0.22640591  0.14354281  0.28890068    -0.02900
Br679      Br  0.20373227  0.16984126  0.23621427    -0.02500
H680        H  0.20845588  0.09081771  0.28271079     0.09600
H681        H  0.27666878  0.15295264  0.36780403     0.07600
Br682      Br  0.28169346  0.07188592  0.40899697    -0.03000
C683        C  0.15867191  0.22031033  0.42746417    -0.09600
C684        C  0.16740017  0.25423586  0.39803762     0.06600
C685        C  0.15280671  0.27954618  0.36201051    -0.03400
C686        C  0.13010375  0.27086780  0.35736976    -0.07800
C687        C  0.12138401  0.23729247  0.38810193     0.05700
C688        C  0.13603888  0.21164551  0.42256801    -0.02900
Br689      Br  0.12636323  0.16325581  0.46072452    -0.02500
H690        H  0.16960883  0.19992210  0.45369009     0.09600
H691        H  0.11904393  0.29126029  0.33161248     0.07600
Br692      Br  0.16235575  0.32754422  0.32170679    -0.03000
C693        C  0.25743894  0.34435101  0.83234487    -0.09600
C694        C  0.23546466  0.33128556  0.83227803     0.06600
C695        C  0.21757308  0.35817492  0.82991121    -0.03400
C696        C  0.22185808  0.39756486  0.82514675    -0.07800
C697        C  0.24376168  0.41095298  0.82661651     0.05700
C698        C  0.26170287  0.38411896  0.83073295    -0.02900
Br699      Br  0.29207934  0.40012941  0.83494832    -0.02500
H700        H  0.27129213  0.32361055  0.83254326     0.09600
H701        H  0.20782916  0.41797155  0.82608474     0.07600
Br702      Br  0.18700237  0.34313568  0.83958670    -0.03000
C703        C  0.12468966  0.24696490  0.83894852    -0.09600
C704        C  0.11374620  0.24703409  0.77483823     0.06600
C705        C  0.12596764  0.23494166  0.71442634    -0.03400
C706        C  0.14854758  0.22368693  0.71954025    -0.07800
C707        C  0.15957020  0.22436605  0.78382724     0.05700
C708        C  0.14715834  0.23595854  0.84407100    -0.02900
Br709      Br  0.15937102  0.23734414  0.93593391    -0.02500
H710        H  0.11570173  0.25580387  0.88609319     0.09600
H711        H  0.15766607  0.21521441  0.67243281     0.07600
Br712      Br  0.11303112  0.23248783  0.62358245    -0.03000
C713        C  0.30243611  0.21122972  0.18822098    -0.09600
C714        C  0.28406321  0.19870414  0.15053751     0.06600
C715        C  0.26977617  0.22658660  0.11967445    -0.03400
C716        C  0.27532092  0.26571832  0.12185985    -0.07800
C717        C  0.29495104  0.27758623  0.15343799     0.05700
C718        C  0.30844254  0.25000496  0.18803697    -0.02900
Br719      Br  0.33657378  0.26157433  0.22956978    -0.02500
H720        H  0.31363019  0.19025948  0.21198255     0.09600
H721        H  0.26438783  0.28689119  0.09755131     0.07600
Br722      Br  0.24344735  0.21383542  0.06904146    -0.03000
C723        C  0.39658158  0.15306261  0.98736274    -0.09600
C724        C  0.41019525  0.14031270  0.04201165     0.06600
C725        C  0.39967021  0.12371148  0.10088820    -0.03400
C726        C  0.37681659  0.11590812  0.10017406    -0.07800
C727        C  0.36354598  0.12564144  0.04302444     0.05700
C728        C  0.37349139  0.14674703  0.98811610    -0.02900
Br729      Br  0.35648119  0.16978924  0.91472553    -0.02500
H730        H  0.40393831  0.16772843  0.94323474     0.09600
H731        H  0.36941845  0.10172617  0.14477803     0.07600
Br732      Br  0.41509306  0.11136501  0.18502902    -0.03000
C733        C  0.27868472  0.01369636  0.62521934    -0.09600
C734        C  0.29976263  0.02705520  0.64262348     0.06600
C735        C  0.31600021  0.00092650  0.66798017    -0.03400
C736        C  0.31337217  0.45881943  0.68736611    -0.07800
C737        C  0.29276327  0.44538724  0.66470546     0.05700
C738        C  0.27520574  0.47226056  0.65324536    -0.02900
Br739      Br  0.24534866  0.45696083  0.63326340    -0.02500
H740        H  0.26576436  0.03403957  0.60912138     0.09600
H741        H  0.32695987  0.43844839  0.69722288     0.07600
Br742      Br  0.34575838  0.01583467  0.69100861    -0.03000
C743        C  0.38509035  0.13504703  0.71997397    -0.09600
C744        C  0.37303584  0.13895896  0.65804242     0.06600
C745        C  0.38469039  0.13315836  0.59398892    -0.03400
C746        C  0.40736432  0.12220971  0.59312308    -0.07800
C747        C  0.41924325  0.11681627  0.65500432     0.05700
C748        C  0.40785221  0.12438246  0.71913262    -0.02900
Br749      Br  0.42218637  0.12157235  0.80778301    -0.02500
H750        H  0.37664783  0.13943241  0.76978921     0.09600
H751        H  0.41573812  0.11766882  0.54320138     0.07600
Br752      Br  0.37097936  0.14045077  0.50522765    -0.03000
In753      In  0.30448926  0.64188054  0.68587442     1.36900
C754        C  0.28464189  0.70398071  0.62323516     0.77100
O755        O  0.31616314  0.58321923  0.71287887    -0.61300
O756        O  0.29355262  0.58968191  0.62813547    -0.52200
C757        C  0.34832307  0.64369375  0.66429841     0.69800
O758        O  0.33476904  0.63493732  0.61732099    -0.47100
C759        C  0.27979229  0.62834708  0.80215815     0.74500
O760        O  0.29693270  0.70594043  0.67616037    -0.58900
O761        O  0.27388984  0.61995356  0.74119980    -0.49000
O762        O  0.28366000  0.66989425  0.59784526    -0.55400
C763        C  0.30408632  0.56702971  0.66856092     0.84700
O764        O  0.33914041  0.65630324  0.72029143    -0.57300
O765        O  0.29809580  0.64622130  0.80390101    -0.60600
In766      In  0.29484354  0.59966143  0.05558604     1.36900
C767        C  0.28063106  0.52914065  0.10104051     0.77100
O768        O  0.30200771  0.64233570  0.13907599    -0.61300
O769        O  0.27167880  0.64787502  0.08375115    -0.52200
C770        C  0.33927106  0.60712461  0.04516543     0.69800
O771        O  0.32829550  0.61330586  0.10101441    -0.47100
C772        C  0.27576940  0.62422531  0.93413368     0.74500
O773        O  0.29370282  0.53381054  0.04994352    -0.58900
O774        O  0.26539322  0.62171910  0.99153219    -0.49000
O775        O  0.27612641  0.56038105  0.13337733    -0.55400
C776        C  0.28504151  0.66295011  0.12527153     0.84700
O777        O  0.32754566  0.59506488  0.99565062    -0.57300
O778        O  0.29620319  0.61545069  0.93941721    -0.60600
C779        C  0.26368209  0.62490014  0.86428114    -0.02900
In780      In  0.22802994  0.72201949  0.78518369     1.36900
C781        C  0.24714500  0.65850983  0.84833908     0.77100
O782        O  0.23461296  0.71744172  0.66767291    -0.61300
O783        O  0.25847410  0.74505627  0.72908988    -0.52200
C784        C  0.18353528  0.71839078  0.78933686     0.69800
O785        O  0.19492776  0.72640049  0.84248304    -0.47100
C786        C  0.23044864  0.79703030  0.80666358     0.74500
O787        O  0.23537647  0.65726444  0.79431795    -0.58900
O788        O  0.24196889  0.77329097  0.84216994    -0.49000
O789        O  0.24750424  0.69229747  0.87505802    -0.55400
C790        C  0.25263926  0.73596179  0.66854927     0.84700
O791        O  0.19521167  0.70874465  0.73633241    -0.57300
O792        O  0.21570322  0.78172582  0.77045410    -0.60600
In793      In  0.23940618  0.76417753  0.41302316     1.36900
C794        C  0.25310903  0.83606312  0.37180658     0.77100
O795        O  0.23709006  0.75409943  0.53137208    -0.61300
O796        O  0.26617812  0.73450608  0.47954184    -0.52200
C797        C  0.19496037  0.75320617  0.40733381     0.69800
O798        O  0.20451938  0.76502872  0.46153066    -0.47100
C799        C  0.25398045  0.70451585  0.33976533     0.74500
O800        O  0.23975722  0.83012541  0.42165398    -0.58900
O801        O  0.26553559  0.71965362  0.38672435    -0.49000
O802        O  0.25850766  0.80536263  0.33926227    -0.55400
C803        C  0.25618860  0.73832624  0.53736940     0.84700
O804        O  0.20819501  0.74738392  0.35663205    -0.57300
O805        O  0.23620306  0.72287682  0.32583156    -0.60600
C806        C  0.26868832  0.73796188  0.60634408    -0.02900
In807      In  0.30387564  0.89612662  0.18391364     1.36900
C808        C  0.28335088  0.95727755  0.11981083     0.77100
O809        O  0.31339218  0.83604413  0.20613615    -0.61300
O810        O  0.29285866  0.84741514  0.11839458    -0.52200
C811        C  0.34804934  0.89739395  0.16627954     0.69800
O812        O  0.33487689  0.88881387  0.11810550    -0.47100
C813        C  0.28038672  0.87965352  0.30192145     0.74500
O814        O  0.29610472  0.96031441  0.17148634    -0.58900
O815        O  0.27374823  0.87254672  0.24133485    -0.49000
O816        O  0.28203247  0.92270593  0.09735149    -0.55400
C817        C  0.30122147  0.82255577  0.15943590     0.84700
O818        O  0.33839349  0.90960826  0.22162550    -0.57300
O819        O  0.29833393  0.89854780  0.30242916    -0.60600
In820      In  0.29762450  0.84555055  0.55323363     1.36900
C821        C  0.28139817  0.77593138  0.59838057     0.77100
O822        O  0.27570201  0.89353858  0.59085769    -0.61300
O823        O  0.30714667  0.88462620  0.63864549    -0.52200
C824        C  0.34198621  0.85523035  0.54096154     0.69800
O825        O  0.33227461  0.84778186  0.59791627    -0.47100
C826        C  0.27921162  0.87094062  0.43192419     0.74500
O827        O  0.29655067  0.77937433  0.55274474    -0.58900
O828        O  0.27323077  0.88450951  0.49059791    -0.49000
O829        O  0.27513490  0.80817326  0.62422329    -0.55400
C830        C  0.29041910  0.90679563  0.63001693     0.84700
O831        O  0.32912051  0.85546229  0.48976845    -0.57300
O832        O  0.29462970  0.84528583  0.43587977    -0.60600
C833        C  0.26537799  0.87444049  0.36598801    -0.02900
In834      In  0.23771295  0.51461973  0.91702108     1.36900
C835        C  0.25228345  0.58539332  0.86899855     0.77100
O836        O  0.23793612  0.51557524  0.03607489    -0.61300
O837        O  0.26236544  0.48053485  0.98509269    -0.52200
C838        C  0.19382707  0.49991382  0.92260794     0.69800
O839        O  0.20512780  0.50031963  0.86677409    -0.47100
C840        C  0.24644664  0.95651879  0.81692113     0.74500
O841        O  0.23436816  0.58099951  0.90273241    -0.58900
O842        O  0.26043062  0.96780384  0.86049958    -0.49000
O843        O  0.26250984  0.55346341  0.85829504    -0.55400
C844        C  0.25448977  0.49246179  0.04285939     0.84700
O845        O  0.20721983  0.97528106  0.92548692    -0.57300
O846        O  0.22933913  0.97824827  0.81190673    -0.60600
In847      In  0.23011454  0.97120076  0.28989828     1.36900
C848        C  0.24888562  0.90829043  0.35580430     0.77100
O849        O  0.23856564  0.95808357  0.17434556    -0.61300
O850        O  0.25157458  0.00889271  0.21717684    -0.52200
C851        C  0.18538932  0.97235717  0.28660794     0.69800
O852        O  0.19633845  0.97354645  0.34212762    -0.47100
C853        C  0.24139178  0.54596599  0.33192381     0.74500
O854        O  0.23445795  0.90633566  0.30891497    -0.58900
O855        O  0.25404070  0.51773009  0.34760686    -0.49000
O856        O  0.25244604  0.94287411  0.37409568    -0.55400
C857        C  0.25076321  0.98731791  0.16450034     0.84700
O858        O  0.19746346  0.96770141  0.23245011    -0.57300
O859        O  0.21686740  0.02626607  0.33681422    -0.60600
C860        C  0.26697556  0.99044174  0.10232651    -0.02900
In861      In  0.55377180  0.70850801  0.90555383     1.36900
C862        C  0.53506647  0.64497468  0.84551990     0.77100
O863        O  0.54849974  0.70783149  0.02456081    -0.61300
O864        O  0.52239007  0.72959918  0.96344181    -0.52200
C865        C  0.59856973  0.70803227  0.89090198     0.69800
O866        O  0.58548314  0.71690622  0.84237570    -0.47100
C867        C  0.54830901  0.78171295  0.87778867     0.74500
O868        O  0.54857351  0.64372437  0.89546974    -0.58900
O869        O  0.54094450  0.75577622  0.83723023    -0.49000
O870        O  0.53260547  0.67874038  0.82102447    -0.55400
C871        C  0.52925838  0.72374387  0.02412795     0.84700
O872        O  0.58862127  0.69575844  0.94465485    -0.57300
O873        O  0.56007132  0.76926312  0.92678952    -0.60600
In874      In  0.54523920  0.75208970  0.27844134     1.36900
C875        C  0.53125227  0.82406356  0.32387179     0.77100
O876        O  0.54298007  0.75318330  0.16132717    -0.61300
O877        O  0.52141706  0.71492906  0.21197034    -0.52200
C878        C  0.58952234  0.74328408  0.27112439     0.69800
O879        O  0.57896351  0.74897680  0.32785742    -0.47100
C880        C  0.53613815  0.69382005  0.35821744     0.74500
O881        O  0.54630267  0.81796348  0.27853971    -0.58900
O882        O  0.52095583  0.71169940  0.32609345    -0.49000
O883        O  0.52372971  0.79318852  0.34859178    -0.55400
C884        C  0.52755829  0.72895338  0.15473412     0.84700
O885        O  0.57734152  0.74234617  0.21827066    -0.57300
O886        O  0.55515034  0.70843766  0.35410701    -0.60600
C887        C  0.51385551  0.72811760  0.08845767    -0.02900
In888      In  0.48714381  0.58873853  0.64248087     1.36900
C889        C  0.50289413  0.51677146  0.59981199     0.77100
O890        O  0.47719697  0.62154819  0.54943969    -0.61300
O891        O  0.50846887  0.63333163  0.59441695    -0.52200
C892        C  0.44315085  0.60467326  0.65618633     0.69800
O893        O  0.45786625  0.62321542  0.68756702    -0.47100
C894        C  0.50572796  0.60979626  0.76575916     0.74500
O895        O  0.48898323  0.52260257  0.64909336    -0.58900
O896        O  0.51240537  0.62263555  0.70803388    -0.49000
O897        O  0.50826175  0.54776336  0.56996424    -0.55400
C898        C  0.49354031  0.64378889  0.55267069     0.84700
O899        O  0.45093127  0.57648384  0.61982550    -0.57300
O900        O  0.48977225  0.58647205  0.75972269    -0.60600
In901      In  0.47939329  0.63083479  0.01503736     1.36900
C902        C  0.49773179  0.69473109  0.07535539     0.77100
O903        O  0.46923306  0.57053444  0.00238710    -0.61300
O904        O  0.49451022  0.58218803  0.07580318    -0.52200
C905        C  0.43488417  0.63454570  0.02886454     0.69800
O906        O  0.44772134  0.62768555  0.07906753    -0.47100
C907        C  0.50376801  0.61528127  0.89669139     0.74500
O908        O  0.48499010  0.69556506  0.02344180    -0.58900
O909        O  0.51066956  0.60955793  0.95734270    -0.49000
O910        O  0.49932434  0.66133900  0.10210799    -0.55400
C911        C  0.48386998  0.55695718  0.04201838     0.84700
O912        O  0.44500125  0.64266388  0.97268203    -0.57300
O913        O  0.48449400  0.63100186  0.89612035    -0.60600
C914        C  0.51921631  0.61129388  0.83257752    -0.02900
In915      In  0.48704454  0.84042172  0.14134518     1.36900
C916        C  0.50153835  0.76753108  0.09810781     0.77100
O917        O  0.47818438  0.87902574  0.05435283    -0.61300
O918        O  0.51033183  0.88351295  0.09776061    -0.52200
C919        C  0.44253695  0.85452588  0.14949402     0.69800
O920        O  0.45162756  0.83226500  0.10418682    -0.47100
C921        C  0.50615500  0.86309643  0.26457153     0.74500
O922        O  0.48852593  0.77423547  0.14949046    -0.58900
O923        O  0.51394026  0.87190092  0.20558448    -0.49000
O924        O  0.50648010  0.79806946  0.06626444    -0.55400
C925        C  0.49587327  0.89783560  0.05817082     0.84700
O926        O  0.45619208  0.86807894  0.19218563    -0.57300
O927        O  0.48881094  0.84278613  0.25984920    -0.60600
In928      In  0.48055557  0.88132778  0.51425212     1.36900
C929        C  0.49992005  0.94334995  0.57645325     0.77100
O930        O  0.47016738  0.82227015  0.48722205    -0.61300
O931        O  0.49380214  0.82869879  0.56847297    -0.52200
C932        C  0.43653129  0.88804332  0.53003329     0.69800
O933        O  0.44912800  0.87775691  0.57906794    -0.47100
C934        C  0.50452529  0.86813941  0.39603048     0.74500
O935        O  0.48745580  0.94502462  0.52398164    -0.58900
O936        O  0.51159490  0.86152159  0.45627381    -0.49000
O937        O  0.50107061  0.90971187  0.60265843    -0.55400
C938        C  0.48372868  0.80603066  0.52750130     0.84700
O939        O  0.44673554  0.89818223  0.47521985    -0.57300
O940        O  0.48532989  0.88417692  0.39597706    -0.60600
C941        C  0.51972456  0.86367836  0.33191072    -0.02900
In942      In  0.54807567  0.50131898  0.78099728     1.36900
C943        C  0.53212190  0.57272432  0.82399237     0.77100
O944        O  0.54419623  0.50592267  0.66383528    -0.61300
O945        O  0.52578632  0.46215023  0.71212766    -0.52200
C946        C  0.59294512  0.49292538  0.78117238     0.69800
O947        O  0.58183671  0.51065755  0.82838584    -0.47100
C948        C  0.53553435  0.94412927  0.85647061     0.74500
O949        O  0.54613414  0.56720384  0.77493798    -0.58900
O950        O  0.52148899  0.96118193  0.81867970    -0.49000
O951        O  0.52701622  0.54179165  0.85414067    -0.55400
C952        C  0.52996069  0.47951270  0.65623455     0.84700
O953        O  0.57949743  0.98476262  0.73024097    -0.57300
O954        O  0.55360952  0.96140486  0.86463543    -0.60600
In955      In  0.55733167  0.95611319  0.41266113     1.36900
C956        C  0.53681804  0.89548302  0.34709232     0.77100
O957        O  0.54989215  0.95137690  0.52962242    -0.61300
O958        O  0.52636203  0.98072223  0.46780447    -0.52200
C959        C  0.60223983  0.95381864  0.40481981     0.69800
O960        O  0.58996365  0.95954317  0.35295267    -0.47100
C961        C  0.54528990  0.53301774  0.38115959     0.74500
O962        O  0.55000435  0.89205563  0.39773339    -0.58900
O963        O  0.53668391  0.50836166  0.34051567    -0.49000
O964        O  0.53574829  0.92985192  0.32451408    -0.55400
C965        C  0.53192525  0.97147301  0.52837366     0.84700
O966        O  0.59149605  0.94490340  0.45935195    -0.57300
O967        O  0.56411284  0.01681034  0.43913814    -0.60600
C968        C  0.51598580  0.97656544  0.59069358    -0.02900
In969      In  0.05326909  0.98054486  0.90612049     1.36900
C970        C  0.03439195  0.91777209  0.84400271     0.77100
O971        O  0.04893331  0.98081954  0.02456349    -0.61300
O972        O  0.02179967  0.99850444  0.96310898    -0.52200
C973        C  0.09756755  0.97935483  0.90050176     0.69800
O974        O  0.08581265  0.99257003  0.85167020    -0.47100
C975        C  0.05115419  0.55433368  0.89558565     0.74500
O976        O  0.04681924  0.91620500  0.89655315    -0.58900
O977        O  0.06200711  0.54063068  0.94532989    -0.49000
O978        O  0.03371507  0.95115812  0.81685160    -0.55400
C979        C  0.02931916  0.99496218  0.02357260     0.84700
O980        O  0.08670198  0.96240560  0.94777701    -0.57300
O981        O  0.03892742  0.03024066  0.84527124    -0.60600
In982      In  0.04665354  0.52386971  0.29132620     1.36900
C983        C  0.03106211  0.59610257  0.32950706     0.77100
O984        O  0.04454884  0.52562466  0.17321429    -0.61300
O985        O  0.02209571  0.48899020  0.22417034    -0.52200
C986        C  0.09119572  0.50876612  0.29167247     0.69800
O987        O  0.08174472  0.53508596  0.32877867    -0.47100
C988        C  0.03845829  0.96705628  0.35626904     0.74500
O989        O  0.04426440  0.58921673  0.27869035    -0.58900
O990        O  0.05632256  0.98541159  0.36005162    -0.49000
O991        O  0.02695819  0.56630116  0.36457143    -0.55400
C992        C  0.02852697  0.50241447  0.16680189     0.84700
O993        O  0.07790692  0.00000020  0.22348460    -0.57300
O994        O  0.02339409  0.98298512  0.32077935    -0.60600
C995        C  0.01439905  0.00087096  0.08762204    -0.02900
In996      In  0.97781463  0.90649024  0.01408879     1.36900
C997        C  0.99760023  0.96841744  0.07627472     0.77100
O998        O  0.99019496  0.85770799  0.07976439    -0.61300
O999        O  0.96967786  0.84633865  0.99237237    -0.52200
C1000       C  0.93316029  0.90927449  0.02998235     0.69800
O1001       O  0.94604283  0.90152589  0.07959784    -0.47100
C1002       C  0.00202251  0.89073162  0.89432381     0.74500
O1003       O  0.98371329  0.97087909  0.02740727    -0.58900
O1004       O  0.00866456  0.88417683  0.95505377    -0.49000
O1005       O  0.99991757  0.93416079  0.09867352    -0.55400
C1006       C  0.98161983  0.83270148  0.03970538     0.84700
O1007       O  0.94324002  0.91969807  0.97505134    -0.57300
O1008       O  0.98312151  0.90790593  0.89412168    -0.60600
In1009     In  0.98824348  0.86504023  0.63439592     1.36900
C1010       C  0.00266793  0.79278552  0.59238971     0.77100
O1011       O  0.97976984  0.90771448  0.55461956    -0.61300
O1012       O  0.01287539  0.90666059  0.59218122    -0.52200
C1013       C  0.94394188  0.87624245  0.63663361     0.69800
O1014       O  0.95416827  0.85996708  0.58586786    -0.47100
C1015       C  0.00487187  0.88502050  0.76184411     0.74500
O1016       O  0.98819602  0.79936257  0.63953877    -0.58900
O1017       O  0.98899962  0.86190041  0.75246567    -0.49000
O1018       O  0.00924906  0.82331090  0.56359229    -0.55400
C1019       C  0.99819358  0.92431720  0.55761816     0.84700
O1020       O  0.95646648  0.88635670  0.68536900    -0.57300
O1021       O  0.01211686  0.89896062  0.70568647    -0.60600
C1022       C  0.01762748  0.88539818  0.83033130    -0.02900
In1023     In  0.04406185  0.77269438  0.77996006     1.36900
C1024       C  0.02933332  0.84542353  0.82357287     0.77100
O1025       O  0.04356759  0.77624433  0.66212661    -0.61300
O1026       O  0.02006496  0.73972173  0.70939214    -0.52200
C1027       C  0.08821267  0.75534905  0.78256358     0.69800
O1028       O  0.07711726  0.76937093  0.83336489    -0.47100
C1029       C  0.03280971  0.71371241  0.85685228     0.74500
O1030       O  0.04543707  0.83923186  0.78164775    -0.58900
O1031       O  0.02066828  0.72606295  0.80875253    -0.49000
O1032       O  0.02096303  0.81432488  0.84474780    -0.55400
C1033       C  0.02740849  0.75354774  0.65328870     0.84700
O1034       O  0.07680961  0.75165128  0.72830799    -0.57300
O1035       O  0.04891743  0.73514185  0.87143318    -0.60600
In1036     In  0.05477949  0.73077720  0.40625359     1.36900
C1037       C  0.03489181  0.66795378  0.34911006     0.77100
O1038       O  0.04875168  0.73041544  0.52415120    -0.61300
O1039       O  0.02370774  0.75469505  0.46139331    -0.52200
C1040       C  0.09924982  0.72647366  0.40239432     0.69800
O1041       O  0.08793130  0.73252369  0.34838497    -0.47100
C1042       C  0.05155830  0.80420137  0.37571692     0.74500
O1043       O  0.04768162  0.66688687  0.40082423    -0.58900
O1044       O  0.04317721  0.77858162  0.33666614    -0.49000
O1045       O  0.03408121  0.70086800  0.32045092    -0.55400
C1046       C  0.03002978  0.74792752  0.52236847     0.84700
O1047       O  0.08771853  0.71768933  0.45524824    -0.57300
O1048       O  0.06351037  0.79117792  0.42368348    -0.60600
C1049       C  0.01445215  0.75322351  0.58545265    -0.02900
In1050     In  0.98695707  0.61151687  0.14664563     1.36900
C1051       C  0.00288565  0.53972272  0.10344791     0.77100
O1052       O  0.98284311  0.64812434  0.05317480    -0.61300
O1053       O  0.00854958  0.66083138  0.12451384    -0.52200
C1054       C  0.94222063  0.62406455  0.14689436     0.69800
O1055       O  0.95288945  0.61449045  0.20039566    -0.47100
C1056       C  0.00465831  0.63382887  0.27097157     0.74500
O1057       O  0.98544964  0.54510815  0.13958961    -0.58900
O1058       O  0.01112855  0.64702369  0.21358924    -0.49000
O1059       O  0.01175327  0.57115922  0.08658516    -0.55400
C1060       C  0.99747649  0.67164360  0.07295355     0.84700
O1061       O  0.95447883  0.62770755  0.09367237    -0.57300
O1062       O  0.98857441  0.61074856  0.26485618    -0.60600
In1063     In  0.97852449  0.65686925  0.51755139     1.36900
C1064       C  0.99787233  0.72060803  0.57314672     0.77100
O1065       O  0.99177973  0.61097046  0.58804002    -0.61300
O1066       O  0.97275300  0.59590028  0.49903977    -0.52200
C1067       C  0.93380181  0.65518159  0.52809374     0.69800
O1068       O  0.94635673  0.65099237  0.57976150    -0.47100
C1069       C  0.00309670  0.64030924  0.40069012     0.74500
O1070       O  0.98495157  0.72144115  0.52165234    -0.58900
O1071       O  0.00955042  0.63314260  0.46129842    -0.49000
O1072       O  0.99895466  0.68771420  0.60176507    -0.55400
C1073       C  0.98484170  0.58444498  0.54794088     0.84700
O1074       O  0.94411625  0.66498490  0.47331407    -0.57300
O1075       O  0.98446471  0.65833874  0.39974674    -0.60600
C1076       C  0.01846691  0.63510723  0.33705142    -0.02900
In1077     In  0.80318705  0.89789625  0.64904363     1.36900
C1078       C  0.78527632  0.96415295  0.59490814     0.77100
O1079       O  0.81624506  0.84161040  0.60794793    -0.61300
O1080       O  0.78163907  0.85500568  0.59689461    -0.52200
C1081       C  0.84777520  0.90030431  0.64263027     0.69800
O1082       O  0.83684195  0.90120772  0.69962629    -0.47100
C1083       C  0.78208690  0.87647511  0.77109482     0.74500
O1084       O  0.79880019  0.96347193  0.64444969    -0.58900
O1085       O  0.77829417  0.86195447  0.71271889    -0.49000
O1086       O  0.78212092  0.93092770  0.56913803    -0.55400
C1087       C  0.79699781  0.82929846  0.59695939     0.84700
O1088       O  0.83566186  0.89937203  0.58949596    -0.57300
O1089       O  0.79688099  0.90227077  0.76804544    -0.60600
In1090     In  0.79530198  0.84933295  0.02670637     1.36900
C1091       C  0.78000300  0.77858153  0.06790364     0.77100
O1092       O  0.79752598  0.88500307  0.12186832    -0.61300
O1093       O  0.77155307  0.89752967  0.05075537    -0.52200
C1094       C  0.83928764  0.86659204  0.02841337     0.69800
O1095       O  0.82789556  0.86104869  0.08290238    -0.47100
C1096       C  0.77875704  0.87055949  0.90083539     0.74500
O1097       O  0.79632753  0.78262250  0.02667072    -0.58900
O1098       O  0.77105821  0.88384194  0.95786567    -0.49000
O1099       O  0.77217362  0.81056083  0.09030448    -0.55400
C1100       C  0.78205754  0.90796156  0.10390943     0.84700
O1101       O  0.82832526  0.86178015  0.97372860    -0.57300
O1102       O  0.79510397  0.84710699  0.90835401    -0.60600
C1103       C  0.76597126  0.87223366  0.83294807    -0.02900
In1104     In  0.72927161  0.72146750  0.25627005     1.36900
C1105       C  0.74777392  0.65668802  0.31405616     0.77100
O1106       O  0.73372540  0.71961719  0.13670317    -0.61300
O1107       O  0.75845191  0.74574040  0.19625864    -0.52200
C1108       C  0.68515363  0.71821938  0.26408296     0.69800
O1109       O  0.69699896  0.72367030  0.31708909    -0.47100
C1110       C  0.73515072  0.79347388  0.29205236     0.74500
O1111       O  0.73566331  0.65678868  0.26079481    -0.58900
O1112       O  0.71789024  0.78268301  0.26168648    -0.49000
O1113       O  0.74874037  0.68970434  0.34318962    -0.55400
C1114       C  0.75183273  0.73781188  0.13618201     0.84700
O1115       O  0.69607791  0.71213700  0.20809124    -0.57300
O1116       O  0.74725275  0.76640219  0.31619001    -0.60600
In1117     In  0.73792152  0.76181514  0.87793154     1.36900
C1118       C  0.75309239  0.83385640  0.83847608     0.77100
O1119       O  0.73920678  0.76802217  0.99584976    -0.61300
O1120       O  0.76089651  0.72608270  0.94940193    -0.52200
C1121       C  0.69352892  0.74597255  0.87841857     0.69800
O1122       O  0.70276152  0.76741607  0.83389340    -0.47100
C1123       C  0.75424138  0.70391014  0.80228261     0.74500
O1124       O  0.73910976  0.82830120  0.88713472    -0.58900
O1125       O  0.76599848  0.72283030  0.84380843    -0.49000
O1126       O  0.75811900  0.80285638  0.80575373    -0.55400
C1127       C  0.75444304  0.74252703  0.00509065     0.84700
O1128       O  0.70694230  0.73364775  0.92327507    -0.57300
O1129       O  0.73516988  0.71872083  0.79154040    -0.60600
C1130       C  0.76737014  0.74062816  0.07291351    -0.02900
In1131     In  0.80140297  0.64050415  0.14251509     1.36900
C1132       C  0.78315922  0.70596078  0.08646600     0.77100
O1133       O  0.81335030  0.57990634  0.12943991    -0.61300
O1134       O  0.78164640  0.59486872  0.08848372    -0.52200
C1135       C  0.84579764  0.64541643  0.13762696     0.69800
O1136       O  0.83443688  0.64247522  0.08280158    -0.47100
C1137       C  0.77884615  0.62405504  0.26362779     0.74500
O1138       O  0.79432763  0.70490322  0.14173501    -0.58900
O1139       O  0.77162166  0.61829739  0.20339247    -0.49000
O1140       O  0.78310384  0.67364901  0.05449383    -0.55400
C1141       C  0.79510212  0.56825476  0.10643243     0.84700
O1142       O  0.83430563  0.64799020  0.19325933    -0.57300
O1143       O  0.79775683  0.63966583  0.26280005    -0.60600
In1144     In  0.79465664  0.60435755  0.52188769     1.36900
C1145       C  0.77939795  0.53413849  0.56587823     0.77100
O1146       O  0.77108998  0.65356581  0.54490835    -0.61300
O1147       O  0.79923389  0.64652478  0.60897579    -0.52200
C1148       C  0.83923697  0.61618409  0.51951291     0.69800
O1149       O  0.82933033  0.59930875  0.56880546    -0.47100
C1150       C  0.77640020  0.62211215  0.39633177     0.74500
O1151       O  0.79187094  0.53870596  0.51308730    -0.58900
O1152       O  0.76704816  0.62965146  0.45438956    -0.49000
O1153       O  0.77572347  0.56530682  0.59956263    -0.55400
C1154       C  0.78308608  0.66799451  0.59100330     0.84700
O1155       O  0.82643594  0.62519084  0.47071487    -0.57300
O1156       O  0.79522461  0.60513346  0.40247215    -0.60600
C1157       C  0.76348613  0.62202392  0.32810609    -0.02900
In1158     In  0.73085696  0.97248515  0.76571008     1.36900
C1159       C  0.75029905  0.90716553  0.81961795     0.77100
O1160       O  0.76127864  0.99678942  0.71028825    -0.61300
O1161       O  0.73534149  0.97794676  0.64671474    -0.52200
C1162       C  0.68689041  0.96482607  0.78109886     0.69800
O1163       O  0.69741496  0.95479365  0.72593079    -0.47100
C1164       C  0.74371075  0.54493741  0.80163828     0.74500
O1165       O  0.73863161  0.90801468  0.76530783    -0.58900
O1166       O  0.75750806  0.51747994  0.81200679    -0.49000
O1167       O  0.75103619  0.93990218  0.85033859    -0.55400
C1168       C  0.75419508  0.99380114  0.64900261     0.84700
O1169       O  0.69920239  0.97604820  0.82993574    -0.57300
O1170       O  0.71829113  0.03156412  0.75607986    -0.60600
In1171     In  0.73406282  0.51567937  0.38503998     1.36900
C1172       C  0.75041807  0.58451606  0.33667069     0.77100
O1173       O  0.73865270  0.52756030  0.50082460    -0.61300
O1174       O  0.75381460  0.47637098  0.45978503    -0.52200
C1175       C  0.68951397  0.50396679  0.38543094     0.69800
O1176       O  0.70103091  0.50510688  0.43965276    -0.47100
C1177       C  0.75110338  0.95304547  0.31912501     0.74500
O1178       O  0.73497842  0.58190241  0.38156518    -0.58900
O1179       O  0.76436725  0.96996147  0.35896189    -0.49000
O1180       O  0.75664804  0.55186074  0.31238070    -0.55400
C1181       C  0.75145546  0.49848030  0.51191813     0.84700
O1182       O  0.70450161  0.01241855  0.34536588    -0.57300
O1183       O  0.73314776  0.97149642  0.30786928    -0.60600
C1184       C  0.76952391  0.99890406  0.58512098    -0.02900
C1185       C  0.74572284  0.64663866  0.73234382    -0.09600
C1186       C  0.76000082  0.66392534  0.77989904     0.06600
C1187       C  0.77323107  0.63970838  0.82268103    -0.03400
C1188       C  0.76814322  0.60033285  0.82854628    -0.07800
C1189       C  0.75064721  0.58494947  0.79049796     0.05700
C1190       C  0.74100146  0.60730437  0.73707359    -0.02900
Br1191     Br  0.72122858  0.58627105  0.66901274    -0.02500
H1192       H  0.73645140  0.66449263  0.69618036     0.09600
H1193       H  0.77709524  0.58229870  0.86516423     0.07600
Br1194     Br  0.79690109  0.65875059  0.87907558    -0.03000
C1195       C  0.75751443  0.84634885  0.34047936    -0.09600
C1196       C  0.74203192  0.83404380  0.29174009     0.06600
C1197       C  0.73515630  0.85985502  0.23897233    -0.03400
C1198       C  0.74083856  0.89885965  0.24328433    -0.07800
C1199       C  0.75401467  0.91224925  0.29763023     0.05700
C1200       C  0.76400400  0.88502127  0.34281118    -0.02900
Br1201     Br  0.78518768  0.89843141  0.41240745    -0.02500
H1202       H  0.76419044  0.82606049  0.37807819     0.09600
H1203       H  0.73385823  0.91925974  0.20640229     0.07600
Br1204     Br  0.71870229  0.84412270  0.15852889    -0.03000
C1205       C  0.80024368  0.50502568  0.16212622    -0.09600
C1206       C  0.78920318  0.52711468  0.11145567     0.06600
C1207       C  0.77214148  0.50989424  0.07284959    -0.03400
C1208       C  0.76547557  0.97327390  0.09653663    -0.07800
C1209       C  0.77958062  0.94747580  0.13224868     0.05700
C1210       C  0.79643141  0.96255626  0.17409525    -0.02900
Br1211     Br  0.81436563  0.93131069  0.23514852    -0.02500
H1212       H  0.81210152  0.51842746  0.19646417     0.09600
H1213       H  0.75178478  0.96222603  0.06651695     0.07600
Br1214     Br  0.75412133  0.53821275  0.00808121    -0.03000
C1215       C  0.77240373  0.77428019  0.57098919    -0.09600
C1216       C  0.79205965  0.78788809  0.60019847     0.06600
C1217       C  0.80455472  0.76308552  0.64384061    -0.03400
C1218       C  0.79915954  0.72411420  0.64864838    -0.07800
C1219       C  0.78136735  0.70921409  0.61136177     0.05700
C1220       C  0.76670899  0.73523539  0.57742419    -0.02900
Br1221     Br  0.73891961  0.71948950  0.53889661    -0.02500
H1222       H  0.76152203  0.79396702  0.54293423     0.09600
H1223       H  0.80993291  0.70487117  0.67801556     0.07600
Br1224     Br  0.82849830  0.78011045  0.70164508    -0.03000
C1225       C  0.89727871  0.65222331  0.46759323    -0.09600
C1226       C  0.90934626  0.64677933  0.52908728     0.06600
C1227       C  0.89807399  0.63043775  0.58695188    -0.03400
C1228       C  0.87555924  0.62020543  0.58201598    -0.07800
C1229       C  0.86349422  0.62590405  0.52051663     0.05700
C1230       C  0.87477919  0.64227343  0.46279983    -0.02900
Br1231     Br  0.86092996  0.65169029  0.37484006    -0.02500
H1232       H  0.90546431  0.66410547  0.42207900     0.09600
H1233       H  0.86737383  0.60793391  0.62718091     0.07600
Br1234     Br  0.91213781  0.62066895  0.67442767    -0.03000
C1235       C  0.90799885  0.65441382  0.09438066    -0.09600
C1236       C  0.91752289  0.63039869  0.14572131     0.06600
C1237       C  0.90309269  0.61221789  0.19365002    -0.03400
C1238       C  0.88002957  0.61845079  0.19009611    -0.07800
C1239       C  0.87051860  0.64209631  0.13886628     0.05700
C1240       C  0.88475044  0.66030861  0.09056938    -0.02900
Br1241     Br  0.87342166  0.69498032  0.02117974    -0.02500
H1242       H  0.91868927  0.66890402  0.05724995     0.09600
H1243       H  0.86932035  0.60361640  0.22673913     0.07600
Br1244     Br  0.91336709  0.57608466  0.26226968    -0.03000
C1245       C  0.98161877  0.51796653  0.50346310    -0.09600
C1246       C  0.99133968  0.54335216  0.55168965     0.06600
C1247       C  0.00800290  0.52907571  0.59607357    -0.03400
C1248       C  0.01715487  0.98666527  0.56806239    -0.07800
C1249       C  0.00048503  0.96477485  0.53628516     0.05700
C1250       C  0.98228406  0.98424991  0.50591964    -0.02900
Br1251     Br  0.96050556  0.95859976  0.45014437    -0.02500
H1252       H  0.96975621  0.52860761  0.46586919     0.09600
H1253       H  0.03145516  0.97220063  0.59078826     0.07600
Br1254     Br  0.02495201  0.56143851  0.65709699    -0.03000
C1255       C  0.88437663  0.89452201  0.70147336    -0.09600
C1256       C  0.87263191  0.89778933  0.63905166     0.06600
C1257       C  0.88492495  0.89572440  0.57538536    -0.03400
C1258       C  0.90801724  0.88830592  0.57562502    -0.07800
C1259       C  0.91948807  0.88374806  0.63825091     0.05700
C1260       C  0.90741634  0.88738085  0.70154168    -0.02900
Br1261     Br  0.92133019  0.88006612  0.78953847    -0.02500
H1262       H  0.87551117  0.89679131  0.75075291     0.09600
H1263       H  0.91711531  0.88660801  0.52645179     0.07600
Br1264     Br  0.87171740  0.90387917  0.48611745    -0.03000
C1265       C  0.98022919  0.72433178  0.00789321    -0.09600
C1266       C  0.99825244  0.71163549  0.04772479     0.06600
C1267       C  0.01206387  0.73943290  0.07922011    -0.03400
C1268       C  0.00613948  0.77879175  0.07647973    -0.07800
C1269       C  0.98673635  0.79099737  0.04282052     0.05700
C1270       C  0.97399020  0.76345911  0.00661205    -0.02900
Br1271     Br  0.94651211  0.77580712  0.96064408    -0.02500
H1272       H  0.96947135  0.70343609  0.98335046     0.09600
H1273       H  0.01664235  0.79989463  0.10155346     0.07600
Br1274     Br  0.03847375  0.72618249  0.13001410    -0.03000
C1275       C  0.89853224  0.89119242  0.96986708    -0.09600
C1276       C  0.90859234  0.90225407  0.03220751     0.06600
C1277       C  0.89546803  0.90191072  0.09397908    -0.03400
C1278       C  0.87299643  0.89060063  0.09174997    -0.07800
C1279       C  0.86317930  0.87856080  0.02890860     0.05700
C1280       C  0.87646334  0.87883911  0.96755431    -0.02900
Br1281     Br  0.86635469  0.85985509  0.87932493    -0.02500
H1282       H  0.90836281  0.89033135  0.92275092     0.09600
H1283       H  0.86320085  0.89104755  0.13962903     0.07600
Br1284     Br  0.90706605  0.91739715  0.18233594    -0.03000
C1285       C  0.05809956  0.87062074  0.41779380    -0.09600
C1286       C  0.04661473  0.84610184  0.37210405     0.06600
C1287       C  0.02927499  0.86185600  0.33181198    -0.03400
C1288       C  0.02463588  0.90176124  0.33548202    -0.07800
C1289       C  0.03736831  0.92646331  0.37713838     0.05700
C1290       C  0.05357302  0.91039298  0.42089166    -0.02900
Br1291     Br  0.07078925  0.94122760  0.48370243    -0.02500
H1292       H  0.07096000  0.85898040  0.45110940     0.09600
H1293       H  0.01225044  0.91383994  0.30091818     0.07600
Br1294     Br  0.01172099  0.83163359  0.26902446    -0.03000
C1295       C  0.02620530  0.60651627  0.85344319    -0.09600
C1296       C  0.04459032  0.59570952  0.89357477     0.06600
C1297       C  0.05455675  0.62404249  0.93635880    -0.03400
C1298       C  0.04766435  0.66283351  0.93186451    -0.07800
C1299       C  0.03130145  0.67423442  0.88460102     0.05700
C1300       C  0.01918500  0.64537096  0.84963432    -0.02900
Br1301     Br  0.99367839  0.65666771  0.79348035    -0.02500
H1302       H  0.01729608  0.58469077  0.82442038     0.09600
H1303       H  0.05666585  0.68460304  0.96078031     0.07600
Br1304     Br  0.07884900  0.61337285  0.99789804    -0.03000
C1305       C  0.63001412  0.48195121  0.44527494    -0.09600
C1306       C  0.62681527  0.96091737  0.40356629     0.06600
C1307       C  0.63921835  0.96382002  0.34064368    -0.03400
C1308       C  0.66116152  0.97719310  0.34113787    -0.07800
C1309       C  0.66535686  0.49393860  0.38534308     0.05700
C1310       C  0.65207904  0.49447091  0.44689307    -0.02900
Br1311     Br  0.66228235  0.51438898  0.53443586    -0.02500
H1312       H  0.62016515  0.48319228  0.49307317     0.09600
H1313       H  0.67018079  0.97925886  0.29202184     0.07600
Br1314     Br  0.62770224  0.94813889  0.25218398    -0.03000
C1315       C  0.62514789  0.95408449  0.74155994    -0.09600
C1316       C  0.61769995  0.48683562  0.78237276     0.06600
C1317       C  0.63107764  0.50063856  0.83719797    -0.03400
C1318       C  0.65422845  0.49413937  0.83495307    -0.07800
C1319       C  0.66211900  0.96707671  0.78640547     0.05700
C1320       C  0.64819600  0.94602495  0.74156216    -0.02900
Br1321     Br  0.65948838  0.90490188  0.68129207    -0.02500
H1322       H  0.61478317  0.93785173  0.70634873     0.09600
H1323       H  0.66406552  0.50580389  0.87684804     0.07600
Br1324     Br  0.61930863  0.52868757  0.91726475    -0.03000
C1325       C  0.47718507  0.49128322  0.99562448    -0.09600
C1326       C  0.48894097  0.51496414  0.04214181     0.06600
C1327       C  0.50611186  0.49817322  0.08179512    -0.03400
C1328       C  0.51229194  0.96235814  0.06397001    -0.07800
C1329       C  0.49758363  0.93720976  0.03070726     0.05700
C1330       C  0.48074948  0.95292472  0.98866160    -0.02900
Br1331     Br  0.46205448  0.92140683  0.93155188    -0.02500
H1332       H  0.46458505  0.50372666  0.96226085     0.09600
H1333       H  0.52566192  0.95077852  0.09536161     0.07600
Br1334     Br  0.52386885  0.52674204  0.14630116    -0.03000
C1335       C  0.51149451  0.70659759  0.53497520    -0.09600
C1336       C  0.49329022  0.68269621  0.52185189     0.06600
C1337       C  0.47315461  0.69989616  0.49899703    -0.03400
C1338       C  0.47060666  0.74027983  0.50060476    -0.07800
C1339       C  0.48788408  0.76392416  0.52308757     0.05700
C1340       C  0.50900950  0.74704947  0.53503843    -0.02900
Br1341     Br  0.53507037  0.77733911  0.54999952    -0.02500
H1342       H  0.52730070  0.69388606  0.55025818     0.09600
H1343       H  0.45467696  0.75319194  0.48683162     0.07600
Br1344     Br  0.44763461  0.67083473  0.47123971    -0.03000
C1345       C  0.51716632  0.63141199  0.35696083    -0.09600
C1346       C  0.53325183  0.65521659  0.38698420     0.06600
C1347       C  0.55054246  0.63827449  0.42540908    -0.03400
C1348       C  0.55392116  0.59837469  0.42210784    -0.07800
C1349       C  0.53973380  0.57462231  0.38366384     0.05700
C1350       C  0.52018191  0.59098972  0.35552594    -0.02900
Br1351     Br  0.49709696  0.56046430  0.31546664    -0.02500
H1352       H  0.50329227  0.64423618  0.32929332     0.09600
H1353       H  0.56824847  0.58613054  0.44833856     0.07600
Br1354     Br  0.57133240  0.66799772  0.47833165    -0.03000
C1355       C  0.62464648  0.72104622  0.32624567    -0.09600
C1356       C  0.61396266  0.73665047  0.26787289     0.06600
C1357       C  0.62683326  0.74478361  0.20779708    -0.03400
C1358       C  0.64981021  0.73699777  0.20705364    -0.07800
C1359       C  0.66053580  0.72188522  0.26575545     0.05700
C1360       C  0.64767013  0.71363598  0.32567827    -0.02900
Br1361     Br  0.66034685  0.69061789  0.40707652    -0.02500
H1362       H  0.61499258  0.71411912  0.37248350     0.09600
H1363       H  0.65949169  0.74424271  0.16103810     0.07600
Br1364     Br  0.61451311  0.76944320  0.12722819    -0.03000
C1365       C  0.52332155  0.87906327  0.82639044    -0.09600
C1366       C  0.53338757  0.90352560  0.87537783     0.06600
C1367       C  0.54692286  0.88737341  0.92689181    -0.03400
C1368       C  0.55120994  0.84760088  0.92627363    -0.07800
C1369       C  0.54270622  0.82332075  0.87394954     0.05700
C1370       C  0.52827368  0.83923663  0.82407193    -0.02900
Br1371     Br  0.51616908  0.80971824  0.74834557    -0.02500
H1372       H  0.51334454  0.89139395  0.78521844     0.09600
H1373       H  0.56193258  0.83593007  0.96616731     0.07600
Br1374     Br  0.56160887  0.91816973  0.99591962    -0.03000
C1375       C  0.66094962  0.71216760  0.93308032    -0.09600
C1376       C  0.66927859  0.73546078  0.87886733     0.06600
C1377       C  0.65419953  0.74746979  0.82691270    -0.03400
C1378       C  0.63167206  0.73699282  0.83100759    -0.07800
C1379       C  0.62324405  0.71453161  0.88610486     0.05700
C1380       C  0.63839815  0.70177096  0.93724071    -0.02900
Br1381     Br  0.62971354  0.66977210  0.01412457    -0.02500
H1382       H  0.67205734  0.70203776  0.97325917     0.09600
H1383       H  0.62051823  0.74736998  0.79114573     0.07600
Br1384     Br  0.66287194  0.77848185  0.74875978    -0.03000
C1385       C  0.12885955  0.52139847  0.33994672    -0.09600
C1386       C  0.11560060  0.49888307  0.29578621     0.06600
C1387       C  0.12720039  0.98503375  0.21365344    -0.03400
C1388       C  0.14983498  0.97486550  0.22043841    -0.07800
C1389       C  0.16077235  0.97909090  0.28434767     0.05700
C1390       C  0.15183811  0.51410556  0.34574408    -0.02900
Br1391     Br  0.16820398  0.54980748  0.40211777    -0.02500
H1392       H  0.12140303  0.54555041  0.36942040     0.09600
H1393       H  0.15900929  0.96399980  0.17495551     0.07600
Br1394     Br  0.11433301  0.97753576  0.12358196    -0.03000
C1395       C  0.13579346  0.95527772  0.92932621    -0.09600
C1396       C  0.12192462  0.98521870  0.90442058     0.05000
C1397       C  0.13140503  0.02138330  0.88814593    -0.03400
C1398       C  0.15441266  0.02628987  0.89341486    -0.07800
C1399       C  0.16994398  0.48866891  0.92432001     0.05700
C1400       C  0.15664339  0.48937689  0.98591883    -0.02900
Br1401     Br  0.16812499  0.50067350  0.07665828    -0.02500
H1402       H  0.12865134  0.92777707  0.94416900     0.09600
H1403       H  0.16125805  0.05423779  0.87993648     0.07600
Br1404     Br  0.11368696  0.06614160  0.86305500    -0.03000
C1405       C  0.37711791  0.87537144  0.59768799    -0.09600
C1406       C  0.36607651  0.86491376  0.53625311     0.06600
C1407       C  0.37815050  0.86568059  0.47237344    -0.03400
C1408       C  0.40070194  0.87555816  0.47157751    -0.07800
C1409       C  0.41190210  0.88444376  0.53334219     0.05700
C1410       C  0.39968795  0.88520258  0.59672588    -0.02900
Br1411     Br  0.41258113  0.90111297  0.68313495    -0.02500
H1412       H  0.36809683  0.87624566  0.64702466     0.09600
H1413       H  0.40979502  0.87458289  0.42234799     0.07600
Br1414     Br  0.36556784  0.85132182  0.38454081    -0.03000
C1415       C  0.41060288  0.89339307  0.20136456    -0.09600
C1416       C  0.41827052  0.86546796  0.15169316     0.06600
C1417       C  0.40266003  0.85014517  0.10469744    -0.03400
C1418       C  0.38024104  0.86241392  0.10897973    -0.07800
C1419       C  0.37253541  0.88966174  0.15963310     0.05700
C1420       C  0.38813628  0.90548013  0.20575898    -0.02900
Br1421     Br  0.38017658  0.94454003  0.27461303    -0.02500
H1422       H  0.42219174  0.90615209  0.23730990     0.09600
H1423       H  0.36858088  0.84948030  0.07343789     0.07600
Br1424     Br  0.41022491  0.81162964  0.03432904    -0.03000
C1425       C  0.23825223  0.60908721  0.27553067    -0.09600
C1426       C  0.24901379  0.58595827  0.32515553     0.06600
C1427       C  0.26748214  0.60084965  0.36029941    -0.03400
C1428       C  0.27193140  0.64049622  0.35495326    -0.07800
C1429       C  0.25835899  0.66482976  0.31426741     0.05700
C1430       C  0.24331800  0.64800743  0.26818673    -0.02900
Br1431     Br  0.22770671  0.67723654  0.19880121    -0.02500
H1432       H  0.22549184  0.59705588  0.24280092     0.09600
H1433       H  0.28435555  0.65287351  0.38852711     0.07600
Br1434     Br  0.28595538  0.57001458  0.42012479    -0.03000
C1435       C  0.15748802  0.75053870  0.46556317    -0.09600
C1436       C  0.17046240  0.74621024  0.40425376     0.06600
C1437       C  0.15956009  0.73551188  0.34204226    -0.03400
C1438       C  0.13661804  0.72821658  0.34303747    -0.07800
C1439       C  0.12381541  0.73184805  0.40463471     0.05700
C1440       C  0.13447981  0.74419592  0.46602231    -0.02900
Br1441     Br  0.11834181  0.75741029  0.55039461    -0.02500
H1442       H  0.16518024  0.75975274  0.51351637     0.09600
H1443       H  0.12865777  0.72013759  0.29487819     0.07600
Br1444     Br  0.17434800  0.73193408  0.25274042    -0.03000
C1445       C  0.25690793  0.85068399  0.81908086    -0.09600
C1446       C  0.23571194  0.83844858  0.79958361     0.06600
C1447       C  0.22149060  0.86487148  0.76452231    -0.03400
C1448       C  0.22749539  0.90361825  0.75832867    -0.07800
C1449       C  0.24721497  0.91689452  0.78750985     0.05700
C1450       C  0.26299735  0.88941134  0.81145030    -0.02900
Br1451     Br  0.29260505  0.90318259  0.83756199    -0.02500
H1452       H  0.26882954  0.83010159  0.84040759     0.09600
H1453       H  0.21548553  0.92418634  0.73737154     0.07600
Br1454     Br  0.19288808  0.85181271  0.72806294    -0.03000
C1455       C  0.12292786  0.72508902  0.72903228    -0.09600
C1456       C  0.11232739  0.74368781  0.78661975     0.06600
C1457       C  0.12504576  0.74998161  0.84708954    -0.03400
C1458       C  0.14782826  0.74015475  0.84707048    -0.07800
C1459       C  0.15870745  0.72335807  0.78836440     0.05700
C1460       C  0.14576106  0.71503567  0.72912024    -0.02900
Br1461     Br  0.15786883  0.68984121  0.64652632    -0.02500
H1462       H  0.11335368  0.71815867  0.68344641     0.09600
H1463       H  0.15721146  0.74648405  0.89343033     0.07600
Br1464     Br  0.11280078  0.77163124  0.93252349    -0.03000
C1465       C  0.29608500  0.71601543  0.20234198    -0.09600
C1466       C  0.28328621  0.70372967  0.14636209     0.06600
C1467       C  0.27418810  0.73151844  0.10070000    -0.03400
C1468       C  0.28080220  0.76980910  0.10538600    -0.07800
C1469       C  0.29532431  0.78158859  0.15731905     0.05700
C1470       C  0.30177422  0.75488531  0.20938393    -0.02900
Br1471     Br  0.31805573  0.76830681  0.29151767    -0.02500
H1472       H  0.30255607  0.69494118  0.23891375     0.09600
H1473       H  0.27456084  0.79042531  0.06765743     0.07600
Br1474     Br  0.25390544  0.71984237  0.02759440    -0.03000
C1475       C  0.39818614  0.62368865  0.97238585    -0.09600
C1476       C  0.41016588  0.63037083  0.03369421     0.06600
C1477       C  0.39840164  0.63017546  0.09805350    -0.03400
C1478       C  0.37559208  0.62204664  0.10014606    -0.07800
C1479       C  0.36368701  0.61446410  0.03907281     0.05700
C1480       C  0.37526469  0.61610296  0.97432966    -0.02900
Br1481     Br  0.36090290  0.61000873  0.88614447    -0.02500
H1482       H  0.40675366  0.62391230  0.92230235     0.09600
H1483       H  0.36706677  0.62198448  0.15030575     0.07600
Br1484     Br  0.41204326  0.64280095  0.18502155    -0.03000
C1485       C  0.27947480  0.51186061  0.65426902    -0.09600
C1486       C  0.30076523  0.52515067  0.66915006     0.06600
C1487       C  0.31751597  0.49855317  0.68989984    -0.03400
C1488       C  0.31115251  0.96180359  0.67322805    -0.07800
C1489       C  0.29065618  0.94775900  0.65098167     0.05700
C1490       C  0.27389355  0.97431779  0.62969238    -0.02900
Br1491     Br  0.24440834  0.95925804  0.60444836    -0.02500
H1492       H  0.26608816  0.53239133  0.64300480     0.09600
H1493       H  0.32429443  0.94190126  0.68929441     0.07600
Br1494     Br  0.34694439  0.51395180  0.71521848    -0.03000
C1495       C  0.38701573  0.65328798  0.70595734    -0.09600
C1496       C  0.37282686  0.63652811  0.65698321     0.06600
C1497       C  0.38217626  0.60973085  0.60736773    -0.03400
C1498       C  0.40491882  0.59983669  0.60885710    -0.07800
C1499       C  0.41903844  0.61605123  0.65856567     0.05700
C1500       C  0.40981998  0.64354994  0.70712352    -0.02900
Br1501     Br  0.42687916  0.66789763  0.77875573    -0.02500
H1502       H  0.38024275  0.67359625  0.74480055     0.09600
H1503       H  0.41159071  0.57905929  0.57064513     0.07600
Br1504     Br  0.36502654  0.58338467  0.53814643    -0.03000
loop_ 
_geom_bond_atom_site_label_1 
_geom_bond_atom_site_label_2 
_geom_bond_distance 
_geom_bond_site_symmetry_2 
_ccdc_geom_bond_type 
In1           O3   2.157       .  S
In1           O4   2.225       .  S
In1          O12   2.272       .  S
In1           O6   2.250       .  S
In1           O8   2.249       .  S
In1           O9   2.278       .  S
In1          O10   2.329       .  S
In1          O13   2.296       .  S
C2            O8   1.267       .  A
C2           O10   1.262       .  A
C2           C54   1.534       .  S
O3           C11   1.255       .  A
O4           C11   1.268       .  A
C5           O12   1.266       .  A
C5            O6   1.263       .  A
C5          C744   1.499       .  S
C7            O9   1.259       .  A
C7           O13   1.268       .  A
C7           C27   1.531       .  S
C11         C734   1.449       .  S
In14         O16   2.198       .  S
In14         O17   2.192       .  S
In14         O25   2.279   1_554  S
In14         O19   2.278       .  S
In14         O21   2.285       .  S
In14         O22   2.318   1_554  S
In14         O23   2.312       .  S
In14         O26   2.262   1_554  S
C15          O21   1.263       .  A
C15          O23   1.255       .  A
C15         C860   1.533   1_545  S
O16          C24   1.262       .  A
O17          C24   1.257       .  A
C18          O25   1.259   1_554  A
C18          O19   1.261       .  A
C18         C727   1.499       .  S
C20          O22   1.258       .  A
C20          O26   1.270       .  A
C20          C27   1.533       .  S
C24         C714   1.459       .  S
C27          C29   1.535       .  S
C27          C83   1.530       .  S
In28         O30   2.301       .  S
In28         O31   2.273       .  S
In28         O39   2.269       .  S
In28         O33   2.242       .  S
In28         O35   2.266       .  S
In28         O36   2.228       .  S
In28         O37   2.330       .  S
In28         O40   2.182       .  S
C29          O35   1.265       .  A
C29          O37   1.259       .  A
O30          C38   1.264       .  A
O31          C38   1.255       .  A
C32          O39   1.265       .  A
C32          O33   1.263       .  A
C32         C707   1.495       .  S
C34          O36   1.265       .  A
C34          O40   1.257       .  A
C34         C694   1.450       .  S
C38          C54   1.527       .  S
In41         O43   2.289       .  S
In41         O44   2.306       .  S
In41         O52   2.269       .  S
In41         O46   2.259       .  S
In41         O48   2.254       .  S
In41         O49   2.223       .  S
In41         O50   2.307       .  S
In41         O53   2.202       .  S
C42          O48   1.263       .  A
C42          O50   1.259       .  A
C42          C81   1.528       .  S
O43          C51   1.268       .  A
O44          C51   1.260       .  A
C45          O52   1.262       .  A
C45          O46   1.263       .  A
C45         C684   1.491       .  S
C47          O49   1.258       .  A
C47          O53   1.255       .  A
C47         C677   1.462       .  S
C51          C54   1.536       .  S
C54          C69   1.525       .  S
In55         O57   2.168       .  S
In55         O58   2.227       .  S
In55         O66   2.253       .  S
In55         O60   2.238       .  S
In55         O62   2.256       .  S
In55         O63   2.259       .  S
In55         O64   2.319       .  S
In55         O67   2.294       .  S
C56          O62   1.266       .  A
C56          O64   1.263       .  A
C56         C108   1.534       .  S
O57          C65   1.255       .  A
O58          C65   1.269       .  A
C59          O66   1.265       .  A
C59          O60   1.264       .  A
C59         C667   1.489       .  S
C61          O63   1.259       .  A
C61          O67   1.267       .  A
C61          C81   1.529       .  S
C65         C717   1.458       .  S
In68         O70   2.227       .  S
In68         O71   2.193       .  S
In68         O79   2.262       .  S
In68         O73   2.255       .  S
In68         O75   2.261       .  S
In68         O76   2.299       .  S
In68         O77   2.311       .  S
In68         O80   2.275       .  S
C69          O75   1.260       .  A
C69          O77   1.255       .  A
O70          C78   1.260       .  A
O71          C78   1.256       .  A
C72          O79   1.261       .  A
C72          O73   1.262       .  A
C72         C654   1.490       .  S
C74          O76   1.262       .  A
C74          O80   1.266       .  A
C74          C81   1.530       .  S
C78         C737   1.458       .  S
C81          C96   1.529       .  S
In82         O84   2.294   1_556  S
In82         O85   2.306   1_545  S
In82         O87   2.265       .  S
In82         O89   2.256       .  S
In82         O91   2.321       .  S
In82        O845   2.249   1_545  S
In82        O842   2.205   1_545  S
In82        O846   2.216   1_545  S
C83          O89   1.264       .  A
C83          O91   1.258       .  A
O84          C92   1.263   1_545  A
O85          C92   1.259   1_556  A
C86          O87   1.263       .  A
C86         O845   1.258   1_545  A
C86         C647   1.491   1_545  S
C88          O90   1.258       .  A
C88          O94   1.262       .  A
C88         C697   1.452       .  S
O90        In834   2.210       .  S
C92         C860   1.530       .  S
O93        In834   2.270       .  S
O93         C838   1.262       .  A
O94        In834   2.207       .  S
In95         O97   2.321       .  S
In95         O98   2.256       .  S
In95        O106   2.253       .  S
In95        O100   2.255       .  S
In95        O102   2.244       .  S
In95        O104   2.325       .  S
In95        O107   2.194       .  S
In95        O855   2.232       .  S
C96         O102   1.264       .  A
C96         O104   1.260       .  A
O97         C105   1.265       .  A
O98         C105   1.254       .  A
C99         O106   1.265       .  A
C99         O100   1.267       .  A
C99         C637   1.491       .  S
C101        O103   1.262       .  A
C101        O859   1.261       .  A
C101        C674   1.456       .  S
O103       In847   2.211   1_545  S
C105        C108   1.529       .  S
O107        C853   1.260       .  A
C108        C767   1.527       .  S
C108        C844   1.530       .  S
In109       O111   2.295   1_556  S
In109       O112   2.254       .  S
In109       O120   2.256       .  S
In109       O114   2.261       .  S
In109       O116   2.258       .  S
In109       O117   2.238       .  S
In109       O118   2.326       .  S
In109       O121   2.179       .  S
C110        O116   1.266       .  A
C110        O118   1.264       .  A
C110        C162   1.538       .  S
O111        C119   1.268       .  A
O112        C119   1.258   1_556  A
C113        O120   1.265       .  A
C113        O114   1.265       .  A
C113        C627   1.499       .  S
C115        O117   1.268       .  A
C115        O121   1.258       .  A
C115        C617   1.468       .  S
C119        C135   1.528       .  S
In122       O124   2.263       .  S
In122       O125   2.318       .  S
In122       O133   2.259       .  S
In122       O127   2.255       .  S
In122       O129   2.266       .  S
In122       O130   2.215       .  S
In122       O131   2.316       .  S
In122       O134   2.213       .  S
C123        O129   1.260       .  A
C123        O131   1.257       .  A
C123        C189   1.528       .  S
O124        C132   1.267       .  A
O125        C132   1.259       .  A
C126        O133   1.260       .  A
C126        O127   1.262       .  A
C126        C604   1.484       .  S
C128        O130   1.260       .  A
C128        O134   1.258       .  A
C128        C594   1.459       .  S
C132        C135   1.529       .  S
C135        C150   1.528       .  S
C135        C164   1.527       .  S
In136       O138   2.199       .  S
In136       O139   2.194       .  S
In136       O147   2.276       .  S
In136       O141   2.275       .  S
In136       O143   2.285       .  S
In136       O144   2.308       .  S
In136       O145   2.313       .  S
In136       O148   2.276       .  S
C137        O143   1.260       .  A
C137        O145   1.254       .  A
C137        C968   1.529   1_545  S
O138        C146   1.261       .  A
O139        C146   1.260       .  A
C140        O147   1.261       .  A
C140        O141   1.260       .  A
C140        C747   1.500       .  S
C142        O144   1.259       .  A
C142        O148   1.266       .  A
C142        C162   1.528       .  S
C146        C584   1.458       .  S
In149       O151   2.183   1_554  S
In149       O152   2.219       .  S
In149       O160   2.273   1_554  S
In149       O154   2.243       .  S
In149       O156   2.234       .  S
In149       O157   2.256   1_554  S
In149       O158   2.321       .  S
In149       O161   2.302   1_554  S
C150        O156   1.266       .  A
C150        O158   1.263       .  A
O151        C159   1.260   1_556  A
O152        C159   1.267       .  A
C153        O160   1.267   1_554  A
C153        O154   1.262       .  A
C153        C724   1.500       .  S
C155        O157   1.259       .  A
C155        O161   1.268       .  A
C155        C162   1.532       .  S
C159        C574   1.464       .  S
C162        C191   1.530       .  S
In163       O165   2.200       .  S
In163       O166   2.205       .  S
In163       O174   2.256       .  S
In163       O168   2.267       .  S
In163       O170   2.259       .  S
In163       O171   2.306       .  S
In163       O172   2.307       .  S
In163       O175   2.262       .  S
C164        O170   1.264       .  A
C164        O172   1.257       .  A
O165        C173   1.260       .  A
O166        C173   1.260       .  A
C167        O174   1.259       .  A
C167        O168   1.262       .  A
C167        C664   1.493       .  S
C169        O171   1.258       .  A
C169        O175   1.267       .  A
C169        C189   1.527       .  S
C173        C577   1.456       .  S
In176       O178   2.163       .  S
In176       O179   2.224       .  S
In176       O187   2.252       .  S
In176       O181   2.241       .  S
In176       O183   2.265       .  S
In176       O184   2.265       .  S
In176       O185   2.313       .  S
In176       O188   2.295       .  S
C177        O183   1.267       .  A
C177        O185   1.262       .  A
C177        C216   1.532       .  S
O178        C186   1.257       .  A
O179        C186   1.267       .  A
C180        O187   1.265       .  A
C180        O181   1.263       .  A
C180        C657   1.487       .  S
C182        O184   1.259       .  A
C182        O188   1.267       .  A
C182        C189   1.527       .  S
C186        C587   1.456       .  S
C189        C204   1.528       .  S
In190       O192   2.263       .  S
In190       O193   2.320   1_545  S
In190       O195   2.254       .  S
In190       O197   2.274       .  S
In190       O199   2.312       .  S
In190       O953   2.279   1_545  S
In190       O950   2.211   1_545  S
In190       O954   2.191   1_545  S
C191        O197   1.262       .  A
C191        O199   1.257       .  A
O192        C200   1.269   1_545  A
O193        C200   1.256       .  A
C194        O195   1.260   1_565  A
C194        O953   1.262       .  A
C194        C564   1.491       .  S
C196        O198   1.260       .  A
C196        O202   1.260       .  A
C196        C614   1.453       .  S
O198       In942   2.202       .  S
C200        C968   1.528       .  S
O201       In942   2.272       .  S
O201        C946   1.262       .  A
O202       In942   2.219       .  S
In203       O205   2.303       .  S
In203       O206   2.259       .  S
In203       O214   2.242       .  S
In203       O208   2.264       .  S
In203       O210   2.259       .  S
In203       O212   2.311       .  S
In203       O215   2.149       .  S
In203       O963   2.243       .  S
C204        O210   1.266       .  A
C204        O212   1.262       .  A
O205        C213   1.266       .  A
O206        C213   1.259       .  A
C207        O214   1.264       .  A
C207        O208   1.266       .  A
C207        C554   1.491       .  S
C209        O211   1.267       .  A
C209        O967   1.258       .  A
C209        C597   1.462       .  S
O211       In955   2.223   1_545  S
C213        C216   1.529       .  S
O215        C961   1.256       .  A
C216        C889   1.533       .  S
C216        C952   1.537       .  S
In217       O219   2.286   1_556  S
In217       O220   2.255       .  S
In217       O228   2.245       .  S
In217       O222   2.253       .  S
In217       O224   2.248       .  S
In217       O226   2.325       .  S
In217       O229   2.234       .  S
In217       O977   2.188       .  S
C218        O224   1.265       .  A
C218        O226   1.262       .  A
C218        C270   1.533       .  S
O219        C227   1.264       .  A
O220        C227   1.260   1_556  A
C221        O228   1.262       .  A
C221        O222   1.265       .  A
C221        C644   1.484       .  S
C223        O225   1.254       .  A
C223        O981   1.270       .  A
C223        C544   1.466       .  S
O225       In969   2.171   1_545  S
C227        C243   1.523       .  S
O229        C975   1.268       .  A
In230       O232   2.256       .  S
In230       O233   2.318   1_545  S
In230       O235   2.251       .  S
In230       O237   2.273       .  S
In230       O239   2.305       .  S
In230       O993   2.264       .  S
In230       O990   2.197   1_545  S
In230       O994   2.212   1_545  S
C231        O237   1.263       .  A
C231        O239   1.258       .  A
C231        C324   1.531       .  S
O232        C240   1.269       .  A
O233        C240   1.257   1_565  A
C234        O235   1.262       .  A
C234        O993   1.259       .  A
C234        C634   1.487       .  S
C236        O238   1.259       .  A
C236        O242   1.260       .  A
C236        C537   1.453       .  S
O238       In982   2.205       .  S
C240        C995   1.530       .  S
O241       In982   2.274       .  S
O241        C986   1.260       .  A
O242       In982   2.210       .  S
C243        C245   1.536   1_455  S
C243        C992   1.534       .  S
C243       C1051   1.523       .  S
In244       O246   2.237   1_655  S
In244       O247   2.174       .  S
In244       O255   2.238   1_554  S
In244       O249   2.264       .  S
In244       O251   2.252       .  S
In244       O252   2.256   1_654  S
In244       O253   2.325   1_655  S
In244       O256   2.298   1_554  S
C245        O251   1.265       .  A
C245        O253   1.263   1_655  A
O246        C254   1.267   1_455  A
O247        C254   1.253       .  A
C248        O255   1.264   1_554  A
C248        O249   1.268       .  A
C248        C524   1.496       .  S
C250        O252   1.255       .  A
C250        O256   1.266   1_455  A
C250        C270   1.525       .  S
C254        C517   1.461       .  S
In257       O259   2.185       .  S
In257       O260   2.200   1_655  S
In257       O268   2.274       .  S
In257       O262   2.263       .  S
In257       O264   2.268       .  S
In257       O265   2.279       .  S
In257       O266   2.312   1_655  S
In257       O269   2.311   1_655  S
C258        O264   1.258   1_455  A
C258        O266   1.253       .  A
C258        C297   1.521       .  S
O259        C267   1.262       .  A
O260        C267   1.261   1_455  A
C261        O268   1.261       .  A
C261        O262   1.260       .  A
C261        C507   1.493       .  S
C263        O265   1.265   1_455  A
C263        O269   1.256       .  A
C263        C270   1.525       .  S
C267        C497   1.451   1_655  S
C270        C272   1.527       .  S
In271       O273   2.280       .  S
In271       O274   2.283       .  S
In271       O282   2.250       .  S
In271       O276   2.280       .  S
In271       O278   2.285       .  S
In271       O279   2.213       .  S
In271       O280   2.309       .  S
In271       O283   2.208       .  S
C272        O278   1.260       .  A
C272        O280   1.254       .  A
O273        C281   1.266       .  A
O274        C281   1.258       .  A
C275        O282   1.260       .  A
C275        O276   1.260       .  A
C275        C704   1.493       .  S
C277        O279   1.257       .  A
C277        O283   1.264       .  A
C277        C547   1.463       .  S
C281        C297   1.521       .  S
In284       O286   2.296       .  S
In284       O287   2.256       .  S
In284       O295   2.245       .  S
In284       O289   2.258       .  S
In284       O291   2.258       .  S
In284       O292   2.232       .  S
In284       O293   2.335       .  S
In284       O296   2.178       .  S
C285        O291   1.266       .  A
C285        O293   1.264       .  A
C285        C324   1.542       .  S
O286        C294   1.266       .  A
O287        C294   1.259       .  A
C288        O295   1.264       .  A
C288        O289   1.265       .  A
C288        C687   1.487       .  S
C290        O292   1.268       .  A
C290        O296   1.259       .  A
C290        C534   1.466       .  S
C294        C297   1.528       .  S
C297        C312   1.524   1_455  S
In298       O300   2.175       .  S
In298       O301   2.235   1_655  S
In298       O309   2.233       .  S
In298       O303   2.259       .  S
In298       O305   2.249       .  S
In298       O306   2.320   1_655  S
In298       O307   2.303   1_655  S
In298       O310   2.269       .  S
C299        O305   1.259   1_455  A
C299        O307   1.258       .  A
C299        C995   1.518       .  S
O300        C308   1.261   1_655  A
O301        C308   1.262       .  A
C302        O309   1.262       .  A
C302        O303   1.262       .  A
C302        C484   1.486       .  S
C304        O306   1.253       .  A
C304        O310   1.265   1_455  A
C304        C324   1.527       .  S
C308        C514   1.449       .  S
In311       O313   2.222   1_655  S
In311       O314   2.206       .  S
In311       O322   2.257       .  S
In311       O316   2.262       .  S
In311       O318   2.248       .  S
In311       O319   2.276   1_655  S
In311       O320   2.309   1_655  S
In311       O323   2.306       .  S
C312        O318   1.262       .  A
C312        O320   1.257   1_655  A
O313        C321   1.259   1_455  A
O314        C321   1.259       .  A
C315        O322   1.264       .  A
C315        O316   1.266       .  A
C315        C474   1.496       .  S
C317        O319   1.252       .  A
C317        O323   1.266   1_455  A
C317        C324   1.526       .  S
C321        C494   1.456       .  S
In325       O327   2.208       .  S
In325       O328   2.201       .  S
In325       O336   2.253       .  S
In325       O330   2.253       .  S
In325       O332   2.295       .  S
In325       O333   2.328       .  S
In325       O334   2.304       .  S
In325       O337   2.296       .  S
C326        O332   1.261       .  A
C326        O334   1.255       .  A
C326        C432   1.529       .  S
O327        C335   1.256       .  A
O328        C335   1.259       .  A
C329        O336   1.266       .  A
C329        O330   1.265       .  A
C329        C504   1.486       .  S
C331        O333   1.251       .  A
C331        O337   1.267       .  A
C331        C351   1.537       .  S
C335        C464   1.448       .  S
In338       O340   2.199       .  S
In338       O341   2.226       .  S
In338       O349   2.259   1_554  S
In338       O343   2.278       .  S
In338       O345   2.266       .  S
In338       O346   2.325   1_554  S
In338       O347   2.318       .  S
In338       O350   2.274   1_554  S
C339        O345   1.262       .  A
C339        O347   1.257       .  A
C339        C378   1.529       .  S
O340        C348   1.261       .  A
O341        C348   1.261       .  A
C342        O349   1.262   1_554  A
C342        O343   1.262       .  A
C342        C527   1.495       .  S
C344        O346   1.255       .  A
C344        O350   1.268       .  A
C344        C351   1.532       .  S
C348        C457   1.456       .  S
C351        C366   1.535       .  S
C351        C407   1.535       .  S
In352       O354   2.296       .  S
In352       O355   2.268       .  S
In352       O363   2.241       .  S
In352       O357   2.242       .  S
In352       O359   2.238       .  S
In352       O360   2.183       .  S
In352       O361   2.322       .  S
In352       O364   2.219       .  S
C353        O359   1.265       .  A
C353        O361   1.261       .  A
C353        C405   1.532       .  S
O354        C362   1.265       .  A
O355        C362   1.258       .  A
C356        O363   1.264       .  A
C356        O357   1.265       .  A
C356        C607   1.484       .  S
C358        O360   1.256       .  A
C358        O364   1.266       .  A
C358        C444   1.461       .  S
C362        C378   1.528       .  S
In365       O367   2.270   1_556  S
In365       O368   2.324       .  S
In365       O376   2.285       .  S
In365       O370   2.281       .  S
In365       O372   2.277       .  S
In365       O373   2.197       .  S
In365       O374   2.320       .  S
In365       O377   2.199       .  S
C366        O372   1.265       .  A
C366        O374   1.257       .  A
O367        C375   1.271       .  A
O368        C375   1.258   1_556  A
C369        O376   1.261       .  A
C369        O370   1.259       .  A
C369        C624   1.502       .  S
C371        O373   1.258       .  A
C371        O377   1.261       .  A
C371        C434   1.457       .  S
C375        C378   1.537       .  S
C378        C380   1.539       .  S
In379       O381   2.182       .  S
In379       O382   2.226       .  S
In379       O390   2.231       .  S
In379       O384   2.265       .  S
In379       O386   2.247       .  S
In379       O387   2.262       .  S
In379       O388   2.342       .  S
In379       O391   2.312       .  S
C380        O386   1.265       .  A
C380        O388   1.262       .  A
O381        C389   1.260       .  A
O382        C389   1.266       .  A
C383        O390   1.261       .  A
C383        O384   1.266       .  A
C383        C487   1.491       .  S
C385        O387   1.256       .  A
C385        O391   1.266       .  A
C385        C405   1.528       .  S
C389        C454   1.467       .  S
In392       O394   2.201       .  S
In392       O395   2.207       .  S
In392       O403   2.275       .  S
In392       O397   2.281       .  S
In392       O399   2.284       .  S
In392       O400   2.314       .  S
In392       O401   2.320       .  S
In392       O404   2.276       .  S
C393        O399   1.261       .  A
C393        O401   1.257       .  A
C393       C1184   1.532   1_545  S
O394        C402   1.257       .  A
O395        C402   1.263       .  A
C396        O403   1.260       .  A
C396        O397   1.261       .  A
C396        C477   1.498       .  S
C398        O400   1.256       .  A
C398        O404   1.269       .  A
C398        C405   1.532       .  S
C402        C467   1.459       .  S
C405        C420   1.528       .  S
In406       O408   2.320       .  S
In406       O409   2.256       .  S
In406       O417   2.254       .  S
In406       O411   2.243       .  S
In406       O413   2.242       .  S
In406       O415   2.339       .  S
In406       O418   2.199       .  S
In406      O1166   2.229       .  S
C407        O413   1.264       .  A
C407        O415   1.261       .  A
O408        C416   1.263       .  A
O409        C416   1.256       .  A
C410        O417   1.269       .  A
C410        O411   1.264       .  A
C410        C567   1.495       .  S
C412        O414   1.269       .  A
C412       O1170   1.257       .  A
C412        C437   1.454       .  S
O414      In1158   2.235   1_545  S
C416        C432   1.527       .  S
O418       C1164   1.260       .  A
In419       O421   2.265       .  S
In419       O422   2.293   1_545  S
In419       O424   2.262   1_545  S
In419       O426   2.312       .  S
In419       O428   2.278       .  S
In419      O1182   2.275       .  S
In419      O1179   2.217   1_545  S
In419      O1183   2.212   1_545  S
C420        O426   1.257       .  A
C420        O428   1.261       .  A
O421        C429   1.267       .  A
O422        C429   1.257   1_565  A
C423        O424   1.258       .  A
C423       O1182   1.264   1_565  A
C423        C557   1.496       .  S
C425        O427   1.259       .  A
C425        O431   1.263       .  A
C425        C447   1.460       .  S
O427      In1171   2.218       .  S
C429       C1184   1.526   1_545  S
O430      In1171   2.284       .  S
O430       C1175   1.261       .  A
O431      In1171   2.206       .  S
C432       C1145   1.532       .  S
C432       C1181   1.532       .  S
C433        C434   1.402       .  A
C433        C438   1.384       .  A
C433        H440   1.084       .  S
C434        C435   1.410       .  A
C435        C436   1.394       .  A
C435       Br442   1.922       .  S
C436        C437   1.402       .  A
C436        H441   1.084       .  S
C437        C438   1.407       .  A
C438       Br439   1.925       .  S
C443        C444   1.398       .  A
C443        C448   1.390       .  A
C443        H450   1.084       .  S
C444        C445   1.415       .  A
C445        C446   1.388       .  A
C445       Br452   1.925       .  S
C446        C447   1.397       .  A
C446        H451   1.084       .  S
C447        C448   1.414       .  A
C448       Br449   1.918       .  S
C453        C454   1.406       .  A
C453       C1210   1.386   1_545  A
C453        H460   1.083       .  S
C454        C455   1.411       .  A
C455       C1208   1.393   1_545  A
C455       Br462   1.922       .  S
C456        C457   1.405       .  A
C456       C1207   1.397       .  A
C456        H461   1.084       .  S
C457        C458   1.400       .  A
C458       C1205   1.386       .  A
C458       Br459   1.920       .  S
C463        C464   1.396       .  A
C463        C468   1.390       .  A
C463        H470   1.084       .  S
C464        C465   1.413       .  A
C465        C466   1.385       .  A
C465       Br472   1.927       .  S
C466        C467   1.399       .  A
C466        H471   1.084       .  S
C467        C468   1.414       .  A
C468       Br469   1.921       .  S
C473        C474   1.406       .  A
C473        C478   1.405       .  A
C473        H480   1.083       .  S
C474        C475   1.417       .  A
C475        C476   1.406       .  A
C475       Br482   1.921       .  S
C476        C477   1.406       .  A
C476        H481   1.083       .  S
C477        C478   1.417       .  A
C478       Br479   1.921       .  S
C483        C484   1.402       .  A
C483        C488   1.396       .  A
C483        H490   1.083       .  S
C484        C485   1.414       .  A
C485        C486   1.405       .  A
C485       Br492   1.922   1_554  S
C486        C487   1.409       .  A
C486        H491   1.083       .  S
C487        C488   1.415       .  A
C488       Br489   1.922       .  S
C493        C494   1.401       .  A
C493       C1250   1.384   1_545  A
C493        H500   1.084       .  S
C494        C495   1.407   1_655  A
C495       C1248   1.395   1_545  A
C495       Br502   1.920       .  S
C496        C497   1.405       .  A
C496       C1247   1.390       .  A
C496        H501   1.084       .  S
C497        C498   1.401   1_455  A
C498       C1245   1.380       .  A
C498       Br499   1.923       .  S
C503        C504   1.405       .  A
C503        C508   1.404       .  A
C503        H510   1.084       .  S
C504        C505   1.410       .  A
C505        C506   1.403       .  A
C505       Br512   1.920       .  S
C506        C507   1.409       .  A
C506        H511   1.083       .  S
C507        C508   1.415       .  A
C508       Br509   1.921       .  S
C513        C514   1.394   1_656  A
C513        C518   1.385       .  A
C513        H520   1.085       .  S
C514        C515   1.407       .  A
C515        C516   1.392       .  A
C515       Br522   1.918       .  S
C516        C517   1.401   1_455  A
C516        H521   1.083       .  S
C517        C518   1.418   1_554  A
C518       Br519   1.927       .  S
C523        C524   1.409       .  A
C523        C528   1.407       .  A
C523        H530   1.083       .  S
C524        C525   1.415   1_554  A
C525        C526   1.401       .  A
C525       Br532   1.921       .  S
C526        C527   1.406   1_556  A
C526        H531   1.083       .  S
C527        C528   1.415       .  A
C528       Br529   1.921       .  S
C533        C534   1.409       .  A
C533        C538   1.388       .  A
C533        H540   1.083       .  S
C534        C535   1.408       .  A
C535        C536   1.390       .  A
C535       Br542   1.921       .  S
C536        C537   1.404       .  A
C536        H541   1.084       .  S
C537        C538   1.401       .  A
C538       Br539   1.921       .  S
C543        C544   1.403       .  A
C543        C548   1.394       .  A
C543        H550   1.084       .  S
C544        C545   1.416       .  A
C545        C546   1.386       .  A
C545       Br552   1.925   1_556  S
C546        C547   1.397       .  A
C546        H551   1.084       .  S
C547        C548   1.411       .  A
C548       Br549   1.922   1_455  S
C553        C558   1.409       .  A
C553       C1306   1.410       .  A
C553        H560   1.083       .  S
C554        C555   1.412       .  A
C554       C1305   1.405       .  A
C555        C556   1.409       .  A
C555       Br562   1.920       .  S
C556       C1309   1.411       .  A
C556        H561   1.083       .  S
C557        C558   1.417       .  A
C557       C1308   1.406       .  A
C558       Br559   1.923       .  S
C563        C568   1.405       .  A
C563       C1316   1.408       .  A
C563        H570   1.083       .  S
C564        C565   1.414   1_565  A
C564       C1315   1.408       .  A
C565        C566   1.402   1_545  A
C565       Br572   1.922       .  S
C566       C1319   1.406       .  A
C566        H571   1.083   1_565  S
C567        C568   1.416       .  A
C567       C1318   1.406       .  A
C568       Br569   1.922       .  S
C573        C574   1.404   1_566  A
C573       C1330   1.389       .  A
C573        H580   1.083   1_565  S
C574        C575   1.409       .  A
C575       C1328   1.390   1_545  A
C575       Br582   1.921       .  S
C576        C577   1.404       .  A
C576       C1327   1.390       .  A
C576        H581   1.084       .  S
C577        C578   1.403   1_554  A
C578       C1325   1.388       .  A
C578       Br579   1.922       .  S
C583        C584   1.406       .  A
C583        C588   1.390       .  A
C583        H590   1.084       .  S
C584        C585   1.409       .  A
C585        C586   1.385       .  A
C585       Br592   1.925       .  S
C586        C587   1.403       .  A
C586        H591   1.084       .  S
C587        C588   1.406       .  A
C588       Br589   1.922       .  S
C593        C594   1.403       .  A
C593        C598   1.391       .  A
C593        H600   1.084       .  S
C594        C595   1.405       .  A
C595        C596   1.390       .  A
C595       Br602   1.921       .  S
C596        C597   1.406       .  A
C596        H601   1.083       .  S
C597        C598   1.409       .  A
C598       Br599   1.922       .  S
C603        C604   1.406       .  A
C603        C608   1.401       .  A
C603        H610   1.084       .  S
C604        C605   1.412       .  A
C605        C606   1.401       .  A
C605       Br612   1.922       .  S
C606        C607   1.407       .  A
C606        H611   1.083       .  S
C607        C608   1.411       .  A
C608       Br609   1.920       .  S
C613        C614   1.401       .  A
C613        C618   1.392       .  A
C613        H620   1.084       .  S
C614        C615   1.401       .  A
C615        C616   1.387       .  A
C615       Br622   1.921   1_556  S
C616        C617   1.408       .  A
C616        H621   1.083       .  S
C617        C618   1.411       .  A
C618       Br619   1.919       .  S
C623        C624   1.408       .  A
C623        C628   1.407       .  A
C623        H630   1.083       .  S
C624        C625   1.418       .  A
C625        C626   1.406       .  A
C625       Br632   1.921   1_556  S
C626        C627   1.406       .  A
C626        H631   1.083       .  S
C627        C628   1.417       .  A
C628       Br629   1.922       .  S
C633        C634   1.404       .  A
C633        C638   1.399   1_545  A
C633        H640   1.084       .  S
C634       C1387   1.414   1_545  A
C635        C636   1.407       .  A
C635       C1386   1.420       .  A
C635       Br642   1.921       .  S
C636        C637   1.405       .  A
C636        H641   1.084       .  S
C637       C1390   1.413       .  A
C638       C1389   1.417       .  A
C638       Br639   1.922       .  S
C643        C644   1.405       .  A
C643       C1400   1.403       .  A
C643        H650   1.084   1_556  S
C644        C645   1.407       .  A
C645        C646   1.402       .  A
C645       Br652   1.920       .  S
C646       C1399   1.410       .  A
C646        H651   1.083       .  S
C647        C648   1.419       .  A
C647       C1398   1.406   1_565  A
C648       C1395   1.404       .  A
C648       Br649   1.922       .  S
C653        C654   1.407       .  A
C653        C658   1.401       .  A
C653        H660   1.083       .  S
C654        C655   1.414       .  A
C655        C656   1.404       .  A
C655       Br662   1.922       .  S
C656        C657   1.407       .  A
C656        H661   1.084       .  S
C657        C658   1.412       .  A
C658       Br659   1.921       .  S
C663        C664   1.410       .  A
C663        C668   1.404       .  A
C663        H670   1.083       .  S
C664        C665   1.415       .  A
C665        C666   1.401       .  A
C665       Br672   1.921       .  S
C666        C667   1.406       .  A
C666        H671   1.083       .  S
C667        C668   1.412       .  A
C668       Br669   1.921       .  S
C673        C674   1.402       .  A
C673        C678   1.387       .  A
C673        H680   1.084       .  S
C674        C675   1.405       .  A
C675        C676   1.394       .  A
C675       Br682   1.921       .  S
C676        C677   1.407       .  A
C676        H681   1.083       .  S
C677        C678   1.410       .  A
C678       Br679   1.925       .  S
C683        C684   1.407       .  A
C683        C688   1.402       .  A
C683        H690   1.083       .  S
C684        C685   1.415       .  A
C685        C686   1.406       .  A
C685       Br692   1.921       .  S
C686        C687   1.407       .  A
C686        H691   1.084       .  S
C687        C688   1.409       .  A
C688       Br689   1.919       .  S
C693        C694   1.402       .  A
C693        C698   1.394       .  A
C693        H700   1.084       .  S
C694        C695   1.403       .  A
C695        C696   1.385       .  A
C695       Br702   1.924       .  S
C696        C697   1.403       .  A
C696        H701   1.084       .  S
C697        C698   1.406       .  A
C698       Br699   1.919       .  S
C703        C704   1.404       .  A
C703        C708   1.399       .  A
C703        H710   1.083       .  S
C704        C705   1.416       .  A
C705        C706   1.408       .  A
C705       Br712   1.922       .  S
C706        C707   1.410       .  A
C706        H711   1.083       .  S
C707        C708   1.415       .  A
C708       Br709   1.921       .  S
C713        C714   1.401       .  A
C713        C718   1.385       .  A
C713        H720   1.084       .  S
C714        C715   1.413       .  A
C715        C716   1.390       .  A
C715       Br722   1.925       .  S
C716        C717   1.400       .  A
C716        H721   1.084       .  S
C717        C718   1.412       .  A
C718       Br719   1.926       .  S
C723        C724   1.408   1_556  A
C723        C728   1.408       .  A
C723        H730   1.083       .  S
C724        C725   1.417       .  A
C725        C726   1.404       .  A
C725       Br732   1.922       .  S
C726        C727   1.405       .  A
C726        H731   1.083       .  S
C727        C728   1.417   1_554  A
C728       Br729   1.921       .  S
C733        C734   1.399       .  A
C733       C1490   1.390   1_545  A
C733        H740   1.084       .  S
C734        C735   1.407       .  A
C735       C1488   1.384   1_545  A
C735       Br742   1.926       .  S
C736        C737   1.403       .  A
C736       C1487   1.391       .  A
C736        H741   1.084       .  S
C737        C738   1.408       .  A
C738       C1485   1.388       .  A
C738       Br739   1.922       .  S
C743        C744   1.408       .  A
C743        C748   1.408       .  A
C743        H750   1.083       .  S
C744        C745   1.415       .  A
C745        C746   1.405       .  A
C745       Br752   1.921       .  S
C746        C747   1.407       .  A
C746        H751   1.083       .  S
C747        C748   1.417       .  A
C748       Br749   1.922       .  S
In753       O755   2.188       .  S
In753       O756   2.212       .  S
In753       O764   2.256       .  S
In753       O758   2.235       .  S
In753       O760   2.245       .  S
In753       O761   2.255       .  S
In753       O762   2.323       .  S
In753       O765   2.294       .  S
C754        O760   1.267       .  A
C754        O762   1.265       .  A
C754        C806   1.534       .  S
O755        C763   1.258       .  A
O756        C763   1.271       .  A
C757        O764   1.268       .  A
C757        O758   1.262       .  A
C757       C1496   1.491       .  S
C759        O761   1.260       .  A
C759        O765   1.270       .  A
C759        C779   1.531       .  S
C763       C1486   1.455       .  S
In766       O768   2.212       .  S
In766       O769   2.196       .  S
In766       O777   2.262   1_554  S
In766       O771   2.259       .  S
In766       O773   2.263       .  S
In766       O774   2.291   1_554  S
In766       O775   2.316       .  S
In766       O778   2.301   1_554  S
C767        O773   1.260       .  A
C767        O775   1.255       .  A
O768        C776   1.262       .  A
O769        C776   1.255       .  A
C770        O777   1.263   1_554  A
C770        O771   1.263       .  A
C770       C1479   1.496       .  S
C772        O774   1.262       .  A
C772        O778   1.263       .  A
C772        C779   1.535       .  S
C776       C1466   1.453       .  S
C779        C781   1.543       .  S
C779        C835   1.534       .  S
In780       O782   2.287       .  S
In780       O783   2.268       .  S
In780       O791   2.249       .  S
In780       O785   2.258       .  S
In780       O787   2.265       .  S
In780       O788   2.244       .  S
In780       O789   2.332       .  S
In780       O792   2.186       .  S
C781        O787   1.265       .  A
C781        O789   1.263       .  A
O782        C790   1.267       .  A
O783        C790   1.257       .  A
C784        O791   1.264       .  A
C784        O785   1.268       .  A
C784       C1459   1.498       .  S
C786        O788   1.269       .  A
C786        O792   1.254       .  A
C786       C1446   1.469       .  S
C790        C806   1.526       .  S
In793       O795   2.304       .  S
In793       O796   2.298       .  S
In793       O804   2.261       .  S
In793       O798   2.279       .  S
In793       O800   2.267       .  S
In793       O801   2.216       .  S
In793       O802   2.319       .  S
In793       O805   2.194       .  S
C794        O800   1.260       .  A
C794        O802   1.253       .  A
C794        C833   1.526       .  S
O795        C803   1.266       .  A
O796        C803   1.258       .  A
C797        O804   1.258       .  A
C797        O798   1.263       .  A
C797       C1436   1.498       .  S
C799        O801   1.260       .  A
C799        O805   1.262       .  A
C799       C1429   1.459       .  S
C803        C806   1.532       .  S
C806        C821   1.531       .  S
In807       O809   2.176       .  S
In807       O810   2.199       .  S
In807       O818   2.262       .  S
In807       O812   2.241       .  S
In807       O814   2.258       .  S
In807       O815   2.271       .  S
In807       O816   2.317       .  S
In807       O819   2.294       .  S
C808        O814   1.268       .  A
C808        O816   1.262       .  A
C808        C860   1.532       .  S
O809        C817   1.256       .  A
O810        C817   1.269       .  A
C811        O818   1.265       .  A
C811        O812   1.263       .  A
C811       C1419   1.492       .  S
C813        O815   1.258       .  A
C813        O819   1.269       .  A
C813        C833   1.527       .  S
C817       C1469   1.457       .  S
In820       O822   2.195       .  S
In820       O823   2.196       .  S
In820       O831   2.267       .  S
In820       O825   2.266       .  S
In820       O827   2.272       .  S
In820       O828   2.322       .  S
In820       O829   2.319       .  S
In820       O832   2.263       .  S
C821        O827   1.261       .  A
C821        O829   1.255       .  A
O822        C830   1.258       .  A
O823        C830   1.262       .  A
C824        O831   1.260       .  A
C824        O825   1.262       .  A
C824       C1406   1.493       .  S
C826        O828   1.258       .  A
C826        O832   1.268       .  A
C826        C833   1.530       .  S
C830       C1489   1.458       .  S
C833        C848   1.527       .  S
In834       O836   2.285   1_556  S
In834       O837   2.300       .  S
In834       O839   2.256       .  S
In834       O841   2.302       .  S
In834       O843   2.308       .  S
C835        O841   1.259       .  A
C835        O843   1.258       .  A
O836        C844   1.268       .  A
O837        C844   1.259   1_556  A
C838        O839   1.260       .  A
C838       C1399   1.493       .  S
C840        O842   1.258       .  A
C840        O846   1.262       .  A
C840       C1449   1.466       .  S
In847       O849   2.305       .  S
In847       O850   2.309   1_565  S
In847       O858   2.270       .  S
In847       O852   2.248       .  S
In847       O854   2.269       .  S
In847       O856   2.325       .  S
In847       O859   2.211   1_565  S
C848        O854   1.261       .  A
C848        O856   1.257       .  A
O849        C857   1.268       .  A
O850        C857   1.249   1_545  A
C851        O858   1.265       .  A
C851        O852   1.262       .  A
C851       C1389   1.493       .  S
C853        O855   1.261       .  A
C853       C1426   1.462       .  S
C857        C860   1.534       .  S
In861       O863   2.302   1_556  S
In861       O864   2.274       .  S
In861       O872   2.270       .  S
In861       O866   2.267       .  S
In861       O868   2.257       .  S
In861       O869   2.230       .  S
In861       O870   2.318       .  S
In861       O873   2.161       .  S
C862        O868   1.266       .  A
C862        O870   1.262       .  A
C862        C914   1.533       .  S
O863        C871   1.268       .  A
O864        C871   1.259   1_556  A
C865        O872   1.265       .  A
C865        O866   1.264       .  A
C865       C1379   1.505       .  S
C867        O869   1.267       .  A
C867        O873   1.259       .  A
C867       C1369   1.463       .  S
C871        C887   1.535       .  S
In874       O876   2.255       .  S
In874       O877   2.323       .  S
In874       O885   2.249       .  S
In874       O879   2.251       .  S
In874       O881   2.262       .  S
In874       O882   2.225       .  S
In874       O883   2.301       .  S
In874       O886   2.179       .  S
C875        O881   1.257       .  A
C875        O883   1.255       .  A
C875        C941   1.518       .  S
O876        C884   1.264       .  A
O877        C884   1.257       .  A
C878        O885   1.261       .  A
C878        O879   1.263       .  A
C878       C1356   1.481       .  S
C880        O882   1.261       .  A
C880        O886   1.258       .  A
C880       C1346   1.453       .  S
C884        C887   1.526       .  S
C887        C902   1.536       .  S
C887        C916   1.536       .  S
In888       O890   2.206       .  S
In888       O891   2.215       .  S
In888       O899   2.271       .  S
In888       O893   2.254       .  S
In888       O895   2.274       .  S
In888       O896   2.310       .  S
In888       O897   2.313       .  S
In888       O900   2.261       .  S
C889        O895   1.263       .  A
C889        O897   1.259       .  A
O890        C898   1.257       .  A
O891        C898   1.261       .  A
C892        O899   1.264       .  A
C892        O893   1.257       .  A
C892       C1499   1.492       .  S
C894        O896   1.260       .  A
C894        O900   1.267       .  A
C894        C914   1.529       .  S
C898       C1336   1.466       .  S
In901       O903   2.181       .  S
In901       O904   2.233       .  S
In901       O912   2.262   1_554  S
In901       O906   2.253       .  S
In901       O908   2.257       .  S
In901       O909   2.269   1_554  S
In901       O910   2.323       .  S
In901       O913   2.298   1_554  S
C902        O908   1.266       .  A
C902        O910   1.263       .  A
O903        C911   1.257       .  A
O904        C911   1.265       .  A
C905        O912   1.266   1_554  A
C905        O906   1.265       .  A
C905       C1476   1.496       .  S
C907        O909   1.258       .  A
C907        O913   1.267       .  A
C907        C914   1.532       .  S
C911       C1326   1.466       .  S
C914        C943   1.526       .  S
In915       O917   2.208       .  S
In915       O918   2.217       .  S
In915       O926   2.266       .  S
In915       O920   2.276       .  S
In915       O922   2.278       .  S
In915       O923   2.324       .  S
In915       O924   2.319       .  S
In915       O927   2.280       .  S
C916        O922   1.265       .  A
C916        O924   1.257       .  A
O917        C925   1.257       .  A
O918        C925   1.259       .  A
C919        O926   1.260       .  A
C919        O920   1.261       .  A
C919       C1416   1.497       .  S
C921        O923   1.260       .  A
C921        O927   1.269       .  A
C921        C941   1.539       .  S
C925       C1329   1.460       .  S
In928       O930   2.191       .  S
In928       O931   2.233       .  S
In928       O939   2.243       .  S
In928       O933   2.250       .  S
In928       O935   2.239       .  S
In928       O936   2.245       .  S
In928       O937   2.329       .  S
In928       O940   2.287       .  S
C929        O935   1.266       .  A
C929        O937   1.265       .  A
C929        C968   1.533       .  S
O930        C938   1.258       .  A
O931        C938   1.269       .  A
C932        O939   1.265       .  A
C932        O933   1.266       .  A
C932       C1409   1.487       .  S
C934        O936   1.260       .  A
C934        O940   1.267       .  A
C934        C941   1.525       .  S
C938       C1339   1.462       .  S
C941        C956   1.542       .  S
In942       O944   2.272       .  S
In942       O945   2.331       .  S
In942       O947   2.263       .  S
In942       O949   2.265       .  S
In942       O951   2.308       .  S
C943        O949   1.263       .  A
C943        O951   1.256       .  A
O944        C952   1.267       .  A
O945        C952   1.257       .  A
C946        O947   1.260       .  A
C946       C1316   1.498       .  S
C948        O950   1.260       .  A
C948        O954   1.259       .  A
C948       C1366   1.451       .  S
In955       O957   2.290       .  S
In955       O958   2.268       .  S
In955       O966   2.279       .  S
In955       O960   2.260       .  S
In955       O962   2.266       .  S
In955       O964   2.332       .  S
In955       O967   2.186   1_565  S
C956        O962   1.269       .  A
C956        O964   1.262       .  A
O957        C965   1.269       .  A
O958        C965   1.257       .  A
C959        O966   1.265       .  A
C959        O960   1.263       .  A
C959       C1306   1.501       .  S
C961        O963   1.268       .  A
C961       C1349   1.459       .  S
C965        C968   1.526       .  S
In969       O971   2.284   1_556  S
In969       O972   2.240       .  S
In969       O980   2.251       .  S
In969       O974   2.249       .  S
In969       O976   2.255       .  S
In969       O978   2.325       .  S
In969       O981   2.243   1_565  S
C970        O976   1.265       .  A
C970        O978   1.264       .  A
C970       C1022   1.537       .  S
O971        C979   1.265       .  A
O972        C979   1.258   1_556  A
C973        O980   1.263       .  A
C973        O974   1.265       .  A
C973       C1396   1.484       .  S
C975        O977   1.255       .  A
C975       C1296   1.466       .  S
C979        C995   1.519   1_565  S
In982       O984   2.274       .  S
In982       O985   2.317       .  S
In982       O987   2.276       .  S
In982       O989   2.259       .  S
In982       O991   2.308       .  S
C983        O989   1.264       .  A
C983        O991   1.257       .  A
C983       C1076   1.528       .  S
O984        C992   1.268       .  A
O985        C992   1.257       .  A
C986        O987   1.263       .  A
C986       C1386   1.501       .  S
C988        O990   1.258       .  A
C988        O994   1.261       .  A
C988       C1289   1.456       .  S
C995        C997   1.534   1_445  S
In996       O998   2.229       .  S
In996       O999   2.168   1_554  S
In996      O1007   2.258   1_554  S
In996      O1001   2.279       .  S
In996      O1003   2.257       .  S
In996      O1004   2.271   1_654  S
In996      O1005   2.321       .  S
In996      O1008   2.321   1_554  S
C997       O1003   1.267       .  A
C997       O1005   1.262       .  A
O998       C1006   1.268       .  A
O999       C1006   1.255   1_556  A
C1000      O1007   1.266   1_554  A
C1000      O1001   1.264       .  A
C1000      C1276   1.500       .  S
C1002      O1004   1.259       .  A
C1002      O1008   1.268   1_455  A
C1002      C1022   1.540       .  S
C1006      C1269   1.459       .  S
In1009     O1011   2.189       .  S
In1009     O1012   2.227   1_655  S
In1009     O1020   2.236       .  S
In1009     O1014   2.271       .  S
In1009     O1016   2.256       .  S
In1009     O1017   2.271       .  S
In1009     O1018   2.305   1_655  S
In1009     O1021   2.319   1_655  S
C1010      O1016   1.260   1_455  A
C1010      O1018   1.258       .  A
C1010      C1049   1.521       .  S
O1011      C1019   1.257       .  A
O1012      C1019   1.261   1_455  A
C1013      O1020   1.260       .  A
C1013      O1014   1.262       .  A
C1013      C1259   1.486       .  S
C1015      O1017   1.266   1_455  A
C1015      O1021   1.259       .  A
C1015      C1022   1.532       .  S
C1019      C1249   1.460   1_655  S
C1022      C1024   1.531       .  S
In1023     O1025   2.267       .  S
In1023     O1026   2.299       .  S
In1023     O1034   2.288       .  S
In1023     O1028   2.250       .  S
In1023     O1030   2.286       .  S
In1023     O1031   2.219       .  S
In1023     O1032   2.310       .  S
In1023     O1035   2.209       .  S
C1024      O1030   1.261       .  A
C1024      O1032   1.258       .  A
O1025      C1033   1.269       .  A
O1026      C1033   1.259       .  A
C1027      O1034   1.262       .  A
C1027      O1028   1.258       .  A
C1027      C1456   1.498       .  S
C1029      O1031   1.258       .  A
C1029      O1035   1.260       .  A
C1029      C1299   1.465       .  S
C1033      C1049   1.528       .  S
In1036     O1038   2.286       .  S
In1036     O1039   2.265       .  S
In1036     O1047   2.243       .  S
In1036     O1041   2.267       .  S
In1036     O1043   2.243       .  S
In1036     O1044   2.234       .  S
In1036     O1045   2.322       .  S
In1036     O1048   2.171       .  S
C1037      O1043   1.265       .  A
C1037      O1045   1.262       .  A
C1037      C1076   1.531       .  S
O1038      C1046   1.265       .  A
O1039      C1046   1.259       .  A
C1040      O1047   1.262       .  A
C1040      O1041   1.266       .  A
C1040      C1439   1.492       .  S
C1042      O1044   1.266       .  A
C1042      O1048   1.257       .  A
C1042      C1286   1.464       .  S
C1046      C1049   1.525       .  S
C1049      C1064   1.532   1_455  S
In1050     O1052   2.216       .  S
In1050     O1053   2.194   1_655  S
In1050     O1061   2.276       .  S
In1050     O1055   2.276       .  S
In1050     O1057   2.284       .  S
In1050     O1058   2.311   1_655  S
In1050     O1059   2.300   1_655  S
In1050     O1062   2.273       .  S
C1051      O1057   1.256   1_455  A
C1051      O1059   1.256       .  A
O1052      C1060   1.265       .  A
O1053      C1060   1.256   1_455  A
C1054      O1061   1.259       .  A
C1054      O1055   1.262       .  A
C1054      C1236   1.495       .  S
C1056      O1058   1.255       .  A
C1056      O1062   1.268   1_455  A
C1056      C1076   1.527       .  S
C1060      C1266   1.461       .  S
In1063     O1065   2.230       .  S
In1063     O1066   2.154       .  S
In1063     O1074   2.260       .  S
In1063     O1068   2.269       .  S
In1063     O1070   2.257       .  S
In1063     O1071   2.270   1_655  S
In1063     O1072   2.306       .  S
In1063     O1075   2.285       .  S
C1064      O1070   1.267       .  A
C1064      O1072   1.262       .  A
O1065      C1073   1.267       .  A
O1066      C1073   1.257       .  A
C1067      O1074   1.264       .  A
C1067      O1068   1.263       .  A
C1067      C1226   1.502       .  S
C1069      O1071   1.257       .  A
C1069      O1075   1.268   1_455  A
C1069      C1076   1.526       .  S
C1073      C1246   1.458       .  S
In1077     O1079   2.202       .  S
In1077     O1080   2.220       .  S
In1077     O1088   2.247       .  S
In1077     O1082   2.261       .  S
In1077     O1084   2.262       .  S
In1077     O1085   2.302       .  S
In1077     O1086   2.298       .  S
In1077     O1089   2.312       .  S
C1078      O1084   1.261       .  A
C1078      O1086   1.257       .  A
C1078      C1184   1.522       .  S
O1079      C1087   1.259       .  A
O1080      C1087   1.263       .  A
C1081      O1088   1.263       .  A
C1081      O1082   1.267       .  A
C1081      C1256   1.494       .  S
C1083      O1085   1.247       .  A
C1083      O1089   1.268       .  A
C1083      C1103   1.530       .  S
C1087      C1216   1.459       .  S
In1090     O1092   2.195       .  S
In1090     O1093   2.201       .  S
In1090     O1101   2.265   1_554  S
In1090     O1095   2.291       .  S
In1090     O1097   2.288       .  S
In1090     O1098   2.301   1_554  S
In1090     O1099   2.291       .  S
In1090     O1102   2.272   1_554  S
C1091      O1097   1.261       .  A
C1091      O1099   1.253       .  A
C1091      C1130   1.524       .  S
O1092      C1100   1.260       .  A
O1093      C1100   1.260       .  A
C1094      O1101   1.259   1_554  A
C1094      O1095   1.259       .  A
C1094      C1279   1.501       .  S
C1096      O1098   1.258       .  A
C1096      O1102   1.268       .  A
C1096      C1103   1.524       .  S
C1100      C1209   1.459       .  S
C1103      C1118   1.544       .  S
C1103      C1159   1.535       .  S
In1104     O1106   2.306       .  S
In1104     O1107   2.260       .  S
In1104     O1115   2.238       .  S
In1104     O1109   2.246       .  S
In1104     O1111   2.247       .  S
In1104     O1112   2.196       .  S
In1104     O1113   2.321       .  S
In1104     O1116   2.221       .  S
C1105      O1111   1.264       .  A
C1105      O1113   1.260       .  A
C1105      C1157   1.532       .  S
O1106      C1114   1.265       .  A
O1107      C1114   1.255       .  A
C1108      O1115   1.263       .  A
C1108      O1109   1.265       .  A
C1108      C1359   1.481       .  S
C1110      O1112   1.258       .  A
C1110      O1116   1.264       .  A
C1110      C1196   1.460       .  S
C1114      C1130   1.525       .  S
In1117     O1119   2.274       .  S
In1117     O1120   2.306       .  S
In1117     O1128   2.279       .  S
In1117     O1122   2.292       .  S
In1117     O1124   2.288       .  S
In1117     O1125   2.217       .  S
In1117     O1126   2.331       .  S
In1117     O1129   2.220       .  S
C1118      O1124   1.265       .  A
C1118      O1126   1.258       .  A
O1119      C1127   1.269   1_556  A
O1120      C1127   1.255   1_556  A
C1121      O1128   1.259       .  A
C1121      O1122   1.263       .  A
C1121      C1376   1.507       .  S
C1123      O1125   1.257       .  A
C1123      O1129   1.264       .  A
C1123      C1186   1.466       .  S
C1127      C1130   1.528       .  S
C1130      C1132   1.533       .  S
In1131     O1133   2.196       .  S
In1131     O1134   2.239       .  S
In1131     O1142   2.235       .  S
In1131     O1136   2.278       .  S
In1131     O1138   2.241       .  S
In1131     O1139   2.270       .  S
In1131     O1140   2.325       .  S
In1131     O1143   2.316       .  S
C1132      O1138   1.265       .  A
C1132      O1140   1.261       .  A
O1133      C1141   1.259       .  A
O1134      C1141   1.261       .  A
C1135      O1142   1.263       .  A
C1135      O1136   1.268       .  A
C1135      C1239   1.487       .  S
C1137      O1139   1.256       .  A
C1137      O1143   1.265       .  A
C1137      C1157   1.535       .  S
C1141      C1206   1.466       .  S
In1144     O1146   2.217       .  S
In1144     O1147   2.222       .  S
In1144     O1155   2.265       .  S
In1144     O1149   2.286       .  S
In1144     O1151   2.266       .  S
In1144     O1152   2.284       .  S
In1144     O1153   2.316       .  S
In1144     O1156   2.292       .  S
C1145      O1151   1.264       .  A
C1145      O1153   1.257       .  A
O1146      C1154   1.254       .  A
O1147      C1154   1.261       .  A
C1148      O1155   1.258       .  A
C1148      O1149   1.262       .  A
C1148      C1229   1.501       .  S
C1150      O1152   1.262       .  A
C1150      O1156   1.269       .  A
C1150      C1157   1.533       .  S
C1154      C1219   1.464       .  S
C1157      C1172   1.530       .  S
In1158     O1160   2.277       .  S
In1158     O1161   2.306       .  S
In1158     O1169   2.250       .  S
In1158     O1163   2.252       .  S
In1158     O1165   2.251       .  S
In1158     O1167   2.325       .  S
In1158     O1170   2.159   1_565  S
C1159      O1165   1.266       .  A
C1159      O1167   1.264       .  A
O1160      C1168   1.261       .  A
O1161      C1168   1.267       .  A
C1162      O1169   1.265       .  A
C1162      O1163   1.265       .  A
C1162      C1319   1.490       .  S
C1164      O1166   1.261       .  A
C1164      C1189   1.460       .  S
C1168      C1184   1.535       .  S
In1171     O1173   2.277       .  S
In1171     O1174   2.306       .  S
In1171     O1176   2.267       .  S
In1171     O1178   2.275       .  S
In1171     O1180   2.318       .  S
C1172      O1178   1.261       .  A
C1172      O1180   1.256       .  A
O1173      C1181   1.269       .  A
O1174      C1181   1.253       .  A
C1175      O1176   1.260       .  A
C1175      C1309   1.498       .  S
C1177      O1179   1.259       .  A
C1177      O1183   1.262       .  A
C1177      C1199   1.461       .  S
C1185      C1186   1.398       .  A
C1185      C1190   1.388       .  A
C1185      H1192   1.084       .  S
C1186      C1187   1.416       .  A
C1187      C1188   1.396       .  A
C1187     Br1194   1.921       .  S
C1188      C1189   1.398       .  A
C1188      H1193   1.084       .  S
C1189      C1190   1.412       .  A
C1190     Br1191   1.924       .  S
C1195      C1196   1.398       .  A
C1195      C1200   1.391       .  A
C1195      H1202   1.084       .  S
C1196      C1197   1.414       .  A
C1197      C1198   1.390       .  A
C1197     Br1204   1.925       .  S
C1198      C1199   1.399       .  A
C1198      H1203   1.084       .  S
C1199      C1200   1.413       .  A
C1200     Br1201   1.918       .  S
C1205      C1206   1.406       .  A
C1205      H1212   1.084       .  S
C1206      C1207   1.410       .  A
C1207     Br1214   1.920       .  S
C1208      C1209   1.404       .  A
C1208      H1213   1.084       .  S
C1209      C1210   1.405       .  A
C1210     Br1211   1.925       .  S
C1215      C1216   1.401       .  A
C1215      C1220   1.396       .  A
C1215      H1222   1.084       .  S
C1216      C1217   1.414       .  A
C1217      C1218   1.386       .  A
C1217     Br1224   1.926       .  S
C1218      C1219   1.398       .  A
C1218      H1223   1.084       .  S
C1219      C1220   1.413       .  A
C1220     Br1221   1.921       .  S
C1225      C1226   1.407       .  A
C1225      C1230   1.405       .  A
C1225      H1232   1.083       .  S
C1226      C1227   1.418       .  A
C1227      C1228   1.408       .  A
C1227     Br1234   1.921       .  S
C1228      C1229   1.408       .  A
C1228      H1233   1.083       .  S
C1229      C1230   1.417       .  A
C1230     Br1231   1.922       .  S
C1235      C1236   1.412       .  A
C1235      C1240   1.410       .  A
C1235      H1242   1.083       .  S
C1236      C1237   1.413       .  A
C1237      C1238   1.400       .  A
C1237     Br1244   1.919       .  S
C1238      C1239   1.403       .  A
C1238      H1243   1.084       .  S
C1239      C1240   1.411       .  A
C1240     Br1241   1.919       .  S
C1245      C1246   1.406       .  A
C1245      H1252   1.083       .  S
C1246      C1247   1.408   1_655  A
C1247     Br1254   1.922       .  S
C1248      C1249   1.407       .  A
C1248      H1253   1.083       .  S
C1249      C1250   1.407   1_455  A
C1250     Br1251   1.924       .  S
C1255      C1256   1.404       .  A
C1255      C1260   1.400       .  A
C1255      H1262   1.079       .  S
C1256      C1257   1.418       .  A
C1257      C1258   1.405       .  A
C1257     Br1264   1.921       .  S
C1258      C1259   1.404       .  A
C1258      H1263   1.083       .  S
C1259      C1260   1.408       .  A
C1260     Br1261   1.913       .  S
C1265      C1266   1.400       .  A
C1265      C1270   1.387       .  A
C1265      H1272   1.084   1_554  S
C1266      C1267   1.414   1_655  A
C1267      C1268   1.391       .  A
C1267     Br1274   1.924       .  S
C1268      C1269   1.400   1_455  A
C1268      H1273   1.084       .  S
C1269      C1270   1.412       .  A
C1270     Br1271   1.925   1_554  S
C1275      C1276   1.401   1_556  A
C1275      C1280   1.401       .  A
C1275      H1282   1.072       .  S
C1276      C1277   1.414       .  A
C1277      C1278   1.413       .  A
C1277     Br1284   1.917       .  S
C1278      C1279   1.412       .  A
C1278      H1283   1.083       .  S
C1279      C1280   1.412   1_554  A
C1280     Br1281   1.920       .  S
C1285      C1286   1.407       .  A
C1285      C1290   1.386       .  A
C1285      H1292   1.083       .  S
C1286      C1287   1.410       .  A
C1287      C1288   1.392       .  A
C1287     Br1294   1.923       .  S
C1288      C1289   1.405       .  A
C1288      H1293   1.084       .  S
C1289      C1290   1.404       .  A
C1290     Br1291   1.923       .  S
C1295      C1296   1.402       .  A
C1295      C1300   1.393       .  A
C1295      H1302   1.083       .  S
C1296      C1297   1.414       .  A
C1297      C1298   1.390       .  A
C1297     Br1304   1.924       .  S
C1298      C1299   1.401       .  A
C1298      H1303   1.084       .  S
C1299      C1300   1.411       .  A
C1300     Br1301   1.923   1_455  S
C1305      C1310   1.402       .  A
C1305      H1312   1.084       .  S
C1306      C1307   1.414       .  A
C1307      C1308   1.404       .  A
C1307     Br1314   1.919       .  S
C1308      H1313   1.084       .  S
C1309      C1310   1.415       .  A
C1310     Br1311   1.921       .  S
C1315      C1320   1.406       .  A
C1315      H1322   1.083       .  S
C1316      C1317   1.417       .  A
C1317      C1318   1.403       .  A
C1317     Br1324   1.921       .  S
C1318      H1323   1.083       .  S
C1319      C1320   1.413       .  A
C1320     Br1321   1.920       .  S
C1325      C1326   1.408   1_556  A
C1325      H1332   1.083       .  S
C1326      C1327   1.409       .  A
C1327     Br1334   1.921       .  S
C1328      C1329   1.403       .  A
C1328      H1333   1.083       .  S
C1329      C1330   1.406   1_554  A
C1330     Br1331   1.922       .  S
C1335      C1336   1.404       .  A
C1335      C1340   1.393       .  A
C1335      H1342   1.083       .  S
C1336      C1337   1.413       .  A
C1337      C1338   1.391       .  A
C1337     Br1344   1.924       .  S
C1338      C1339   1.401       .  A
C1338      H1343   1.084       .  S
C1339      C1340   1.407       .  A
C1340     Br1341   1.920       .  S
C1345      C1346   1.404       .  A
C1345      C1350   1.395       .  A
C1345      H1352   1.084       .  S
C1346      C1347   1.403       .  A
C1347      C1348   1.380       .  A
C1347     Br1354   1.924       .  S
C1348      C1349   1.403       .  A
C1348      H1353   1.084       .  S
C1349      C1350   1.409       .  A
C1350     Br1351   1.920       .  S
C1355      C1356   1.406       .  A
C1355      C1360   1.401       .  A
C1355      H1362   1.084       .  S
C1356      C1357   1.412       .  A
C1357      C1358   1.400       .  A
C1357     Br1364   1.922       .  S
C1358      C1359   1.406       .  A
C1358      H1363   1.084       .  S
C1359      C1360   1.410       .  A
C1360     Br1361   1.920       .  S
C1365      C1366   1.405       .  A
C1365      C1370   1.392       .  A
C1365      H1372   1.084       .  S
C1366      C1367   1.402       .  A
C1367      C1368   1.383       .  A
C1367     Br1374   1.922       .  S
C1368      C1369   1.407       .  A
C1368      H1373   1.083       .  S
C1369      C1370   1.409       .  A
C1370     Br1371   1.923       .  S
C1375      C1376   1.411       .  A
C1375      C1380   1.409       .  A
C1375      H1382   1.083       .  S
C1376      C1377   1.417       .  A
C1377      C1378   1.408       .  A
C1377     Br1384   1.920       .  S
C1378      C1379   1.409       .  A
C1378      H1383   1.083       .  S
C1379      C1380   1.416       .  A
C1380     Br1381   1.921   1_556  S
C1385      C1386   1.408       .  A
C1385      C1390   1.404       .  A
C1385      H1392   1.083       .  S
C1387      C1388   1.405       .  A
C1387     Br1394   1.922       .  S
C1388      C1389   1.408       .  A
C1388      H1393   1.083       .  S
C1390     Br1391   1.921       .  S
C1395      C1396   1.402       .  A
C1395      H1402   1.083       .  S
C1396      C1397   1.412   1_565  A
C1397      C1398   1.400       .  A
C1397     Br1404   1.920       .  S
C1398      H1403   1.083       .  S
C1399      C1400   1.416       .  A
C1400     Br1401   1.922   1_556  S
C1405      C1406   1.409       .  A
C1405      C1410   1.403       .  A
C1405      H1412   1.083       .  S
C1406      C1407   1.415       .  A
C1407      C1408   1.403       .  A
C1407     Br1414   1.922       .  S
C1408      C1409   1.406       .  A
C1408      H1413   1.084       .  S
C1409      C1410   1.410       .  A
C1410     Br1411   1.920       .  S
C1415      C1416   1.409       .  A
C1415      C1420   1.404       .  A
C1415      H1422   1.083       .  S
C1416      C1417   1.416       .  A
C1417      C1418   1.403       .  A
C1417     Br1424   1.922       .  S
C1418      C1419   1.407       .  A
C1418      H1423   1.083       .  S
C1419      C1420   1.412       .  A
C1420     Br1421   1.919       .  S
C1425      C1426   1.404       .  A
C1425      C1430   1.384       .  A
C1425      H1432   1.084       .  S
C1426      C1427   1.409       .  A
C1427      C1428   1.396       .  A
C1427     Br1434   1.921       .  S
C1428      C1429   1.407       .  A
C1428      H1433   1.084       .  S
C1429      C1430   1.402       .  A
C1430     Br1431   1.921       .  S
C1435      C1436   1.406       .  A
C1435      C1440   1.403       .  A
C1435      H1442   1.083       .  S
C1436      C1437   1.419       .  A
C1437      C1438   1.405       .  A
C1437     Br1444   1.919       .  S
C1438      C1439   1.403       .  A
C1438      H1443   1.083       .  S
C1439      C1440   1.415       .  A
C1440     Br1441   1.919       .  S
C1445      C1446   1.404       .  A
C1445      C1450   1.394       .  A
C1445      H1452   1.083       .  S
C1446      C1447   1.416       .  A
C1447      C1448   1.390       .  A
C1447     Br1454   1.925       .  S
C1448      C1449   1.400       .  A
C1448      H1453   1.084       .  S
C1449      C1450   1.409       .  A
C1450     Br1451   1.922       .  S
C1455      C1456   1.407       .  A
C1455      C1460   1.407       .  A
C1455      H1462   1.082       .  S
C1456      C1457   1.417       .  A
C1457      C1458   1.402       .  A
C1457     Br1464   1.922       .  S
C1458      C1459   1.405       .  A
C1458      H1463   1.083       .  S
C1459      C1460   1.418       .  A
C1460     Br1461   1.922       .  S
C1465      C1466   1.397       .  A
C1465      C1470   1.389       .  A
C1465      H1472   1.084       .  S
C1466      C1467   1.410       .  A
C1467      C1468   1.382       .  A
C1467     Br1474   1.917       .  S
C1468      C1469   1.397       .  A
C1468      H1473   1.084       .  S
C1469      C1470   1.417       .  A
C1470     Br1471   1.925       .  S
C1475      C1476   1.408   1_556  A
C1475      C1480   1.406       .  A
C1475      H1482   1.083       .  S
C1476      C1477   1.413       .  A
C1477      C1478   1.404       .  A
C1477     Br1484   1.920       .  S
C1478      C1479   1.407       .  A
C1478      H1483   1.083       .  S
C1479      C1480   1.417   1_554  A
C1480     Br1481   1.923       .  S
C1485      C1486   1.399       .  A
C1485      H1492   1.084       .  S
C1486      C1487   1.409       .  A
C1487     Br1494   1.923       .  S
C1488      C1489   1.402       .  A
C1488      H1493   1.084       .  S
C1489      C1490   1.412       .  A
C1490     Br1491   1.923       .  S
C1495      C1496   1.405       .  A
C1495      C1500   1.404       .  A
C1495      H1502   1.083       .  S
C1496      C1497   1.418       .  A
C1497      C1498   1.401       .  A
C1497     Br1504   1.923       .  S
C1498      C1499   1.404       .  A
C1498      H1503   1.083       .  S
C1499      C1500   1.417       .  A
C1500     Br1501   1.922       .  S
