geometry optimzed in LAMMPS
_audit_creation_date              2020-11-30 
_audit_creation_method            'lammps2cif' 
_symmetry_space_group_name_H-M    'P1' 
_symmetry_Int_Tables_number       1 
_symmetry_cell_setting            triclinic 
loop_ 
_symmetry_equiv_pos_as_xyz 
  x,y,z 
_cell_length_a                    29.99796798 
_cell_length_b                    31.919198769901307 
_cell_length_c                    30.012640933331333 
_cell_angle_alpha                 91.87879451147408 
_cell_angle_beta                  86.46293613686035 
_cell_angle_gamma                 88.85904499465187 
loop_ 
_atom_site_label 
_atom_site_type_symbol 
_atom_site_fract_x 
_atom_site_fract_y 
_atom_site_fract_z 
_atom_site_charge 
O1          O  0.60405017  0.54578989  0.64481679    -0.81000
O2          O  0.74647457  0.66510182  0.55803892    -0.65600
O3          O  0.65964201  0.58163312  0.58185790    -1.12200
C4          C  0.77717389  0.51099387  0.65108723     1.05900
O5          O  0.80461405  0.62089262  0.55067727    -0.78800
O6          O  0.79776124  0.53947806  0.55758830    -0.66400
Ni7        Ni  0.60177868  0.59420417  0.60761224     1.34900
C8          C  0.76693876  0.53564025  0.53089129     0.84700
O9          O  0.66247698  0.65271186  0.53602546    -0.79400
O10         O  0.59527522  0.64438962  0.57207347    -0.89700
C11         C  0.78379831  0.65313892  0.53815607     0.84200
O12         O  0.62101092  0.62828250  0.65508522    -0.67900
O13         O  0.79744935  0.54583391  0.64944613    -0.87200
C14         C  0.64197700  0.66187368  0.64970322     0.85100
C15         C  0.62180436  0.66416947  0.54530901     1.06600
H16         H  0.72981824  0.60452890  0.64302283     0.38400
O17         O  0.73506264  0.59301888  0.61281706    -1.09800
O18         O  0.72625970  0.53562106  0.54545480    -0.66500
Ni19       Ni  0.70082185  0.54272890  0.60577478     1.26300
O20         O  0.67532969  0.66433904  0.62111071    -0.66700
O21         O  0.74331807  0.50380336  0.62851368    -0.79000
C22         C  0.63298398  0.53724397  0.67297623     0.84500
O23         O  0.67352332  0.54753421  0.66578965    -0.66200
Ni24       Ni  0.79852546  0.58450399  0.60119654     1.27400
Ni25       Ni  0.70057246  0.62510075  0.57348012     1.26100
H26         H  0.65395732  0.57080639  0.55239330     0.39000
O27         O  0.99698400  0.63516660  0.23479042    -0.81000
O28         O  0.88129122  0.56598232  0.35829011    -0.65600
O29         O  0.93107860  0.59978805  0.29170209    -1.12200
C30         C  0.01498117  0.65867067  0.40732045     1.05900
O31         O  0.90969458  0.54719469  0.42135456    -0.78800
O32         O  0.91788249  0.62960405  0.43107166    -0.66400
Ni33       Ni  0.94692347  0.59747344  0.22925268     1.34900
C34         C  0.89765151  0.65367354  0.40606646     0.84700
O35         O  0.89802795  0.51911871  0.28196132    -0.79400
O36         O  0.89898688  0.55879983  0.22040481    -0.89700
C37         C  0.87591182  0.55369021  0.39818560     0.84200
O38         O  0.98542885  0.54865560  0.22158173    -0.67900
O39         O  0.00690352  0.62519201  0.42889244    -0.87200
C40         C  0.99577444  0.52025292  0.24790173     0.85100
C41         C  0.88676577  0.52661916  0.24234112     1.06600
H42         H  0.00004490  0.57263231  0.35549671     0.38400
O43         O  0.96964635  0.58276913  0.36076550    -1.09800
O44         O  0.91073632  0.65720206  0.36424004    -0.66500
Ni45       Ni  0.96610148  0.63320188  0.32983912     1.26300
O46         O  0.98694645  0.52423603  0.29002167    -0.66700
O47         O  0.00139462  0.66491995  0.36879095    -0.79000
C48         C  0.99791706  0.67067074  0.25594184     0.84500
O49         O  0.97109894  0.67890222  0.29015164    -0.66200
Ni50       Ni  0.95983576  0.58474051  0.42344954     1.27400
Ni51       Ni  0.93403514  0.54876942  0.32289972     1.26100
H52         H  0.90073232  0.61082179  0.29475413     0.39000
O53         O  0.95556136  0.27962073  0.16149238    -0.81000
O54         O  0.88675811  0.37383699  0.02609545    -0.65600
O55         O  0.91754941  0.32529365  0.09324866    -1.12200
C56         C  0.02843338  0.26286187  0.98896173     1.05900
O57         O  0.93200006  0.38505786  0.96671424    -0.78800
O58         O  0.92716353  0.30309041  0.95848169    -0.66400
Ni59       Ni  0.90833840  0.32200584  0.15612977     1.34900
C60         C  0.90468809  0.28113029  0.98555582     0.84700
O61         O  0.89268995  0.41178343  0.10878677    -0.79400
O62         O  0.86171787  0.36434190  0.15456818    -0.89700
C63         C  0.89284279  0.38552620  0.98584075     0.84200
O64         O  0.94637686  0.36579061  0.17549658    -0.67900
O65         O  0.01856294  0.29237252  0.96296977    -0.87200
C66         C  0.97353706  0.38867647  0.15390818     0.85100
C67         C  0.86651127  0.40207762  0.14201271     1.06600
H68         H  0.00384320  0.35023718  0.03794560     0.38400
O69         O  0.97413125  0.34192734  0.03129449    -1.09800
O70         O  0.91801274  0.27165085  0.02368358    -0.66500
Ni71       Ni  0.96371556  0.29168142  0.06150762     1.26300
O72         O  0.97847356  0.38709837  0.11114203    -0.66700
O73         O  0.00996426  0.25988461  0.02804996    -0.79000
C74         C  0.96623991  0.24643620  0.13758900     0.84500
O75         O  0.95595195  0.24342476  0.09719709    -0.66200
Ni76       Ni  0.97551833  0.33944334  0.96729961     1.27400
Ni77       Ni  0.93295905  0.37799137  0.06877831     1.26100
H78         H  0.88908568  0.31782101  0.08224134     0.39000
C79         C  0.79864126  0.45840988  0.95390921     0.03100
C80         C  0.83200643  0.43914586  0.97792506    -0.13100
C81         C  0.85461095  0.40241571  0.96137092     0.00600
C82         C  0.84229312  0.38400411  0.92032314    -0.11600
C83         C  0.80693874  0.40139208  0.89676536     0.03100
C84         C  0.78629090  0.43893273  0.91375968    -0.11000
H85         H  0.84130029  0.45324224  0.00924225     0.08700
H86         H  0.85982556  0.35594926  0.90712934     0.06200
H87         H  0.76098944  0.45352747  0.89486223     0.06000
C88         C  0.07651877  0.43551972  0.19553477     0.03100
C89         C  0.04746684  0.40920706  0.17459586    -0.13100
C90         C  0.00201371  0.41657742  0.17962551     0.00600
C91         C  0.98528484  0.45077183  0.20762782    -0.11600
C92         C  0.01451311  0.47968271  0.22713793     0.03100
C93         C  0.06072078  0.47150486  0.22080980    -0.11000
H94         H  0.06056854  0.38267901  0.15388668     0.08700
H95         H  0.94983123  0.45562518  0.21337228     0.06200
H96         H  0.08411218  0.49304873  0.23463100     0.06000
O97         O  0.61943991  0.38890839  0.78865808    -0.81000
O98         O  0.73711913  0.29478084  0.88091499    -0.65600
O99         O  0.67519245  0.34214841  0.84200084    -1.12200
C100        C  0.78427087  0.37580041  0.72948882     1.05900
O101        O  0.80052167  0.27252528  0.84434798    -0.78800
O102        O  0.81486439  0.35295492  0.83406459    -0.66400
Ni103      Ni  0.61308664  0.35155056  0.83836935     1.34900
C104        C  0.78978498  0.37987503  0.85588396     0.84700
O105        O  0.65398346  0.26100273  0.87272290    -0.79400
O106        O  0.60377608  0.31452128  0.88643587    -0.89700
C107        C  0.77724824  0.28031820  0.88089772     0.84200
O108        O  0.59678773  0.30528908  0.80093126    -0.67900
O109        O  0.80677701  0.34368805  0.74126385    -0.87200
C110        C  0.61950459  0.27456735  0.78316370     0.85100
C111        C  0.61727986  0.27656513  0.89097540     1.06600
H112        H  0.73295577  0.30293628  0.76260595     0.38400
O113        O  0.73910166  0.31331724  0.79212722    -1.09800
O114        O  0.75001127  0.38802706  0.84499407    -0.66500
Ni115      Ni  0.71270148  0.36766054  0.79795742     1.26300
O116        O  0.66178462  0.27190266  0.78407787    -0.66700
O117        O  0.74944283  0.39005234  0.75136597    -0.79000
C118        C  0.64310940  0.42176772  0.78745750     0.84500
O119        O  0.68187820  0.42088462  0.80191024    -0.66200
Ni120      Ni  0.80212830  0.30792335  0.79283361     1.27400
Ni121      Ni  0.69847342  0.28587247  0.83274105     1.26100
H122        H  0.68224028  0.35261408  0.87129022     0.39000
O123        O  0.54527159  0.02791334  0.80152397    -0.81000
O124        O  0.40664018  0.16987817  0.87544971    -0.65600
O125        O  0.48255791  0.07359517  0.85676670    -1.12200
C126        C  0.37139241  0.02715080  0.75706743     1.05900
O127        O  0.34507470  0.13249730  0.87312195    -0.78800
O128        O  0.34166065  0.05257677  0.85518547    -0.66400
Ni129      Ni  0.54490040  0.07528731  0.84471388     1.34900
C130        C  0.36948298  0.03517949  0.87889885     0.84700
O131        O  0.48180842  0.14522106  0.91149110    -0.79400
O132        O  0.55069174  0.12400465  0.88535416    -0.89700
C133        C  0.36747608  0.16115567  0.89100596     0.84200
O134        O  0.54018164  0.11193192  0.79734609    -0.67900
O135        O  0.35120060  0.06252161  0.76539555    -0.87200
C136        C  0.52228251  0.14830762  0.79928525     0.85100
C137        C  0.52419831  0.14897613  0.90930290     1.06600
H138        H  0.42513443  0.11327144  0.78847891     0.38400
O139        O  0.41575043  0.09956562  0.81563878    -1.09800
O140        O  0.41049149  0.02929509  0.86595075    -0.66500
Ni141      Ni  0.44598879  0.04652553  0.81467542     1.26300
O142        O  0.48623374  0.15753516  0.82345169    -0.66700
O143        O  0.40778095  0.01772543  0.77448486    -0.79000
C144        C  0.51925985  0.99746808  0.79364926     0.84500
O145        O  0.48058877  0.99613572  0.81312405    -0.66200
Ni146      Ni  0.35141756  0.09897662  0.81831541     1.27400
Ni147      Ni  0.44792450  0.12373538  0.86407058     1.26100
H148        H  0.47913680  0.05955905  0.88479632     0.39000
C149        C  0.52981059  0.25002800  0.97882212     0.03100
C150        C  0.56064759  0.27104799  0.95183836    -0.13100
C151        C  0.58713955  0.25033342  0.91837252     0.00600
C152        C  0.57873709  0.20794376  0.90779143    -0.11600
C153        C  0.54257791  0.18750769  0.93012185     0.03100
C154        C  0.51913065  0.20856506  0.96686068    -0.11000
H155        H  0.56543637  0.30422664  0.95833295     0.08700
H156        H  0.59695459  0.19259254  0.87932199     0.06200
H157        H  0.49307446  0.19272703  0.98590614     0.06000
C158        C  0.58368516  0.19308146  0.69927098     0.03100
C159        C  0.56053841  0.16607710  0.72823110    -0.13100
C160        C  0.54636840  0.17931476  0.77156023     0.00600
C161        C  0.56325424  0.21705857  0.78887440    -0.11600
C162        C  0.59575578  0.23925107  0.76312736     0.03100
C163        C  0.60689352  0.22613264  0.71887071    -0.11000
H164        H  0.54789785  0.13675742  0.71558289     0.08700
H165        H  0.55408860  0.22720795  0.82299084     0.06200
H166        H  0.62910733  0.24502229  0.69843907     0.06000
C167        C  0.58623421  0.94538530  0.69518247     0.03100
C168        C  0.57587856  0.96774814  0.73554856    -0.13100
C169        C  0.53243460  0.96682197  0.75619663     0.00600
C170        C  0.50133007  0.93925915  0.73759951    -0.11600
C171        C  0.51242577  0.91760570  0.69628682     0.03100
C172        C  0.55382516  0.92357938  0.67440242    -0.11000
H173        H  0.60180962  0.98520241  0.75096913     0.08700
H174        H  0.46895369  0.93512437  0.75463836     0.06200
H175        H  0.56369619  0.90575373  0.64380217     0.06000
C176        C  0.03218170  0.95511553  0.23688619     0.03100
C177        C  0.05697793  0.92249457  0.25550701    -0.13100
C178        C  0.09901189  0.90922356  0.23658280     0.00600
C179        C  0.11651470  0.93064658  0.19808276    -0.11600
C180        C  0.09382995  0.96586476  0.18086677     0.03100
C181        C  0.05156979  0.97704433  0.20051557    -0.11000
H182        H  0.04324319  0.90679084  0.28450784     0.08700
H183        H  0.14890701  0.92122011  0.18274747     0.06200
H184        H  0.03333806  0.00242401  0.18630318     0.06000
C185        C  0.32475859  0.24851633  0.97045447     0.03100
C186        C  0.29887257  0.22709296  0.00257678    -0.13100
C187        C  0.29513581  0.18340395  0.99950501     0.00600
C188        C  0.31916651  0.16158336  0.96330401    -0.11600
C189        C  0.34676950  0.18317872  0.93171579     0.03100
C190        C  0.35010613  0.22656546  0.93646087    -0.11000
H191        H  0.27832877  0.24518584  0.02754510     0.08700
H192        H  0.31547727  0.12803692  0.95882918     0.06200
H193        H  0.36846489  0.24368669  0.91093802     0.06000
C194        C  0.37559839  0.99867775  0.99587041     0.03100
C195        C  0.38709531  0.01167376  0.95305562    -0.13100
C196        C  0.35446197  0.02372833  0.92446980     0.00600
C197        C  0.30922110  0.02774042  0.94085789    -0.11600
C198        C  0.29660327  0.01690287  0.98483363     0.03100
C199        C  0.33013383  0.00199686  0.01182010    -0.11000
H200        H  0.42191315  0.00937017  0.94103813     0.08700
H201        H  0.28396389  0.03873529  0.91948419     0.06200
H202        H  0.32035236  0.99151865  0.04485772     0.06000
C203        C  0.16781967  0.01616188  0.26943779     0.03100
C204        C  0.18555100  0.02917371  0.22784432    -0.13100
C205        C  0.21195626  0.00186015  0.19876163     0.00600
C206        C  0.22445203  0.96225521  0.21232009    -0.11600
C207        C  0.20935877  0.94915089  0.25412062     0.03100
C208        C  0.17978276  0.97528035  0.28149307    -0.11000
H209        H  0.17686597  0.05993448  0.21661868     0.08700
H210        H  0.24433975  0.94125263  0.18974634     0.06200
H211        H  0.16677116  0.96347522  0.31286817     0.06000
C212        C  0.09763495  0.18372042  0.91405880     0.03100
C213        C  0.11969716  0.16077224  0.94494766    -0.13100
C214        C  0.11439067  0.17215350  0.99007062     0.00600
C215        C  0.08513376  0.20620244  0.00412868    -0.11600
C216        C  0.06205050  0.22938111  0.97326418     0.03100
C217        C  0.06921552  0.21804330  0.92782920    -0.11000
H218        H  0.14156516  0.13460463  0.93358475     0.08700
H219        H  0.08114727  0.21538602  0.03919100     0.06200
H220        H  0.05092749  0.23427756  0.90329446     0.06000
C221        C  0.01717505  0.18326814  0.22678437     0.03100
C222        C  0.98806494  0.20858153  0.20415778    -0.13100
C223        C  0.99296326  0.21232366  0.15775368     0.00600
C224        C  0.02768543  0.18836721  0.13362335    -0.11600
C225        C  0.05695953  0.16180071  0.15631868     0.03100
C226        C  0.05068058  0.15933538  0.20289516    -0.11000
H227        H  0.96320883  0.22784293  0.22353038     0.08700
H228        H  0.03388006  0.19267023  0.09823504     0.06200
H229        H  0.07468556  0.14194368  0.22107934     0.06000
O230        O  0.23764084  0.99702483  0.03596358    -0.81000
O231        O  0.10628417  0.10865919  0.11932999    -0.65600
O232        O  0.16471541  0.04940096  0.07115034    -1.12200
C233        C  0.26113540  0.16234593  0.02975166     1.05900
O234        O  0.13455615  0.16968996  0.14143708    -0.78800
O235        O  0.15177421  0.17740650  0.05455591    -0.66400
Ni236      Ni  0.18101527  0.98959978  0.06943917     1.34900
C237        C  0.14418277  0.15352250  0.02168875     0.84700
O238        O  0.12441638  0.03178887  0.15709146    -0.79400
O239        O  0.12775427  0.97727987  0.10684265    -0.89700
C240        C  0.10107031  0.14619254  0.13592030     0.84200
O241        O  0.21196921  0.98280836  0.12274622    -0.67900
O242        O  0.24062501  0.18374706  0.06221278    -0.87200
C243        C  0.21693721  0.01157292  0.15166823     0.85100
C244        C  0.11581871  0.99341115  0.14575512     1.06600
H245        H  0.22676195  0.11498221  0.11318616     0.38400
O246        O  0.19836611  0.11663632  0.09970773    -1.09800
O247        O  0.16258272  0.11694328  0.01437319    -0.66500
Ni248      Ni  0.20854375  0.08664866  0.04492345     1.26300
O249        O  0.21491969  0.04905178  0.14106322    -0.66700
O250        O  0.25236706  0.12421299  0.02062930    -0.79000
C251        C  0.24925799  0.02059045  0.00394388     0.84500
O252        O  0.22341147  0.05055485  0.99400868    -0.66200
Ni253      Ni  0.18822417  0.17476535  0.10273560     1.27400
Ni254      Ni  0.16053409  0.07652719  0.12913287     1.26100
H255        H  0.13671092  0.05280265  0.05726528     0.39000
O256        O  0.50314190  0.81527267  0.49508892    -0.81000
O257        O  0.39411392  0.88760858  0.63242291    -0.65600
O258        O  0.44765953  0.85710543  0.56270095    -1.12200
C259        C  0.52050657  0.77452507  0.66804119     1.05900
O260        O  0.37763955  0.85186901  0.69293691    -0.78800
O261        O  0.46538847  0.85939283  0.70340760    -0.66400
Ni262      Ni  0.45322256  0.85526261  0.49899013     1.34900
C263        C  0.48684699  0.88308190  0.67744897     0.84700
O264        O  0.35697381  0.87175947  0.55514851    -0.79400
O265        O  0.40358066  0.89471709  0.49914898    -0.89700
C266        C  0.37575393  0.88599824  0.67166471     0.84200
O267        O  0.41102015  0.81343762  0.48527252    -0.67900
O268        O  0.48250888  0.77585182  0.69092840    -0.87200
C269        C  0.38489941  0.79165505  0.50940063     0.85100
C270        C  0.36554085  0.89396814  0.52104570     1.06600
H271        H  0.43110715  0.77915321  0.61853194     0.38400
O272        O  0.43431076  0.80854000  0.62592317    -1.09800
O273        O  0.49191637  0.87568386  0.63550272    -0.66500
Ni274      Ni  0.48851631  0.82673227  0.59695865     1.26300
O275        O  0.38693098  0.79104294  0.55175258    -0.66700
O276        O  0.52785114  0.79512931  0.63262037    -0.79000
C277        C  0.51173630  0.78415958  0.51909980     0.84500
O278        O  0.48966524  0.77956036  0.55600209    -0.66200
Ni279      Ni  0.42932922  0.81272119  0.69000298     1.27400
Ni280      Ni  0.39356540  0.83953101  0.59162960     1.26100
H281        H  0.45081285  0.88650863  0.57024844     0.39000
O282        O  0.13744629  0.80192628  0.42801478    -0.81000
O283        O  0.21643369  0.90314589  0.31149594    -0.65600
O284        O  0.17358907  0.85895477  0.37006790    -1.12200
C285        C  0.13896805  0.75883119  0.25798639     1.05900
O286        O  0.23572384  0.87753214  0.24291641    -0.78800
O287        O  0.15346558  0.85429960  0.22982212    -0.66400
Ni288      Ni  0.16744636  0.85417571  0.43192530     1.34900
C289        C  0.12502081  0.87341862  0.25639485     0.84700
O290        O  0.25796107  0.89322068  0.38901832    -0.79400
O291        O  0.19791731  0.90561578  0.43662096    -0.89700
C292        C  0.22189879  0.90771628  0.26989454     0.84200
O293        O  0.22227945  0.82474446  0.44302238    -0.67900
O294        O  0.17458761  0.77082243  0.23586513    -0.87200
C295        C  0.25248682  0.80662689  0.41731772     0.85100
C296        C  0.23925991  0.90973210  0.42542979     1.06600
H297        H  0.21759674  0.79180572  0.30631175     0.38400
O298        O  0.20435220  0.81914834  0.30242013    -1.09800
O299        O  0.11989078  0.86356305  0.29800253    -0.66500
Ni300      Ni  0.14772794  0.81808313  0.33277691     1.26300
O301        O  0.25344410  0.80928349  0.37518661    -0.66700
O302        O  0.12457697  0.77580883  0.29504241    -0.79000
C303        C  0.10248885  0.79408883  0.40743637     0.84500
O304        O  0.09501341  0.81207606  0.37115469    -0.66200
Ni305      Ni  0.20688571  0.82346989  0.23991863     1.27400
Ni306      Ni  0.23301524  0.85658917  0.34346867     1.26100
H307        H  0.15948240  0.88560526  0.36465724     0.39000
C308        C  0.04513528  0.73458868  0.49818127     0.03100
C309        C  0.03108393  0.69859032  0.47622787    -0.13100
C310        C  0.03702737  0.69411188  0.42957106     0.00600
C311        C  0.05755254  0.72688315  0.40514286    -0.11600
C312        C  0.07260433  0.76285511  0.42795297     0.03100
C313        C  0.06585153  0.76610746  0.47431239    -0.11000
H314        H  0.01359238  0.67513046  0.49544459     0.08700
H315        H  0.06268547  0.72396904  0.36915476     0.06200
H316        H  0.07686513  0.79373083  0.49227004     0.06000
C317        C  0.26451397  0.96339671  0.53426204     0.03100
C318        C  0.30554378  0.94445230  0.54138965    -0.13100
C319        C  0.32837112  0.91991402  0.50779189     0.00600
C320        C  0.30983723  0.91373096  0.46620268    -0.11600
C321        C  0.26620091  0.92855759  0.46032972     0.03100
C322        C  0.24425310  0.95401042  0.49437431    -0.11000
H323        H  0.31994766  0.94867875  0.57347751     0.08700
H324        H  0.32712863  0.89403236  0.44048876     0.06200
H325        H  0.21154889  0.96718846  0.48903909     0.06000
C326        C  0.29536035  0.71525988  0.47645369     0.03100
C327        C  0.33208734  0.73146464  0.49788082    -0.13100
C328        C  0.34757400  0.77137307  0.48697887     0.00600
C329        C  0.32356489  0.79529099  0.45696398    -0.11600
C330        C  0.28529647  0.77960669  0.43790590     0.03100
C331        C  0.27289168  0.73921812  0.44640144    -0.11000
H332        H  0.34791254  0.71352857  0.52278820     0.08700
H333        H  0.33331983  0.82685617  0.45045846     0.06200
H334        H  0.24260052  0.72761488  0.43271010     0.06000
C335        C  0.05586797  0.74782624  0.18048367     0.03100
C336        C  0.09956539  0.74415110  0.19288899    -0.13100
C337        C  0.10710971  0.73134161  0.23548451     0.00600
C338        C  0.07318869  0.70806939  0.25864128    -0.11600
C339        C  0.03155977  0.70131937  0.23923678     0.03100
C340        C  0.02267632  0.72335847  0.20108310    -0.11000
H341        H  0.12478967  0.76275039  0.17597404     0.08700
H342        H  0.07870747  0.69635868  0.29132452     0.06200
H343        H  0.98932335  0.72359969  0.18908767     0.06000
C344        C  0.27967242  0.96327960  0.70682499     0.03100
C345        C  0.30366195  0.92693894  0.69015844    -0.13100
C346        C  0.35058356  0.92390030  0.69173635     0.00600
C347        C  0.37322706  0.95772413  0.71137203    -0.11600
C348        C  0.34969540  0.99416382  0.72918235     0.03100
C349        C  0.30318560  0.99652249  0.72566143    -0.11000
H350        H  0.28591115  0.90128883  0.67535575     0.08700
H351        H  0.40903490  0.95541417  0.71319819     0.06200
H352        H  0.28451294  0.02353957  0.74022281     0.06000
C353        C  0.78110865  0.26525224  0.00537199     0.03100
C354        C  0.76675601  0.26677757  0.96163662    -0.13100
C355        C  0.79648659  0.27271416  0.92477012     0.00600
C356        C  0.84275162  0.27388783  0.93139787    -0.11600
C357        C  0.85819470  0.27126552  0.97501603     0.03100
C358        C  0.82688117  0.26785579  0.01130515    -0.11000
H359        H  0.73204511  0.26256342  0.95534239     0.08700
H360        H  0.86623665  0.27894857  0.90331546     0.06200
H361        H  0.83837377  0.26914132  0.04468192     0.06000
C362        C  0.59914274  0.72804097  0.74865102     0.03100
C363        C  0.56473784  0.75121554  0.73049954    -0.13100
C364        C  0.55868624  0.74959375  0.68481469     0.00600
C365        C  0.58881643  0.72408035  0.65686832    -0.11600
C366        C  0.62276872  0.69917786  0.67517647     0.03100
C367        C  0.62752352  0.70165920  0.72120067    -0.11000
H368        H  0.54188978  0.77029076  0.75247216     0.08700
H369        H  0.58369352  0.72108423  0.62165040     0.06200
H370        H  0.65169386  0.68148140  0.73593582     0.06000
C371        C  0.62511091  0.75024014  0.46533839     0.03100
C372        C  0.63870182  0.72276819  0.49670469    -0.13100
C373        C  0.60699772  0.70331024  0.52468426     0.00600
C374        C  0.56389850  0.72210293  0.53159110    -0.11600
C375        C  0.55249938  0.75756422  0.50697120     0.03100
C376        C  0.58250810  0.76934402  0.47159580    -0.11000
H377        H  0.67264731  0.71034480  0.49208566     0.08700
H378        H  0.53999603  0.70988148  0.55610254     0.06200
H379        H  0.57227355  0.79205728  0.44799041     0.06000
C380        C  0.80730181  0.73670731  0.45046278     0.03100
C381        C  0.78938800  0.71580358  0.48828018    -0.13100
C382        C  0.80370859  0.67546378  0.49800236     0.00600
C383        C  0.83722507  0.65590031  0.46870132    -0.11600
C384        C  0.85700688  0.67558541  0.43038016     0.03100
C385        C  0.84113978  0.71626527  0.42148024    -0.11000
H386        H  0.76503387  0.73156840  0.51149117     0.08700
H387        H  0.84869886  0.62481383  0.47640625     0.06200
H388        H  0.85586810  0.73232665  0.39316405     0.06000
C389        C  0.55278603  0.49816857  0.76351565     0.03100
C390        C  0.57860774  0.46884143  0.78433342    -0.13100
C391        C  0.62311845  0.46044473  0.76995920     0.00600
C392        C  0.64337770  0.48455134  0.73537350    -0.11600
C393        C  0.61739253  0.51507043  0.71415634     0.03100
C394        C  0.57235236  0.52130906  0.72899704    -0.11000
H395        H  0.56332786  0.45093065  0.81108174     0.08700
H396        H  0.67744399  0.47745208  0.72293813     0.06200
H397        H  0.55167128  0.54324216  0.71217495     0.06000
C398        C  0.85261727  0.44960416  0.72354210     0.03100
C399        C  0.83064240  0.48426876  0.70593405    -0.13100
C400        C  0.79555161  0.47675516  0.67752535     0.00600
C401        C  0.77825284  0.43555212  0.67670744    -0.11600
C402        C  0.80362949  0.40248915  0.69400719     0.03100
C403        C  0.84753914  0.41130080  0.70068429    -0.11000
H404        H  0.83895988  0.51600445  0.71546614     0.08700
H405        H  0.74521215  0.42982578  0.66552742     0.06200
H406        H  0.86959723  0.38498908  0.70505546     0.06000
C407        C  0.75141029  0.53298591  0.40609758     0.03100
C408        C  0.74344569  0.53072035  0.45272702    -0.13100
C409        C  0.77790932  0.53485680  0.48182321     0.00600
C410        C  0.82143445  0.54204416  0.46377217    -0.11600
C411        C  0.83002058  0.54618118  0.41737702     0.03100
C412        C  0.79460979  0.54207897  0.38894831    -0.11000
H413        H  0.71049675  0.52335753  0.46661838     0.08700
H414        H  0.84840287  0.54559013  0.48588977     0.06200
H415        H  0.80113866  0.54308290  0.35309437     0.06000
C416        C  0.78886919  0.45759654  0.22886632     0.03100
C417        C  0.80380212  0.43005825  0.19366796    -0.13100
C418        C  0.84543131  0.43608186  0.17120006     0.00600
C419        C  0.87057647  0.47133182  0.18330801    -0.11600
C420        C  0.85739615  0.49598097  0.22194522     0.03100
C421        C  0.81723341  0.48791960  0.24502984    -0.11000
H422        H  0.78254411  0.40516793  0.18271943     0.08700
H423        H  0.90205187  0.47716052  0.16522711     0.06200
H424        H  0.80605902  0.50798547  0.27359906     0.06000
O425        O  0.14689130  0.37313408  0.64260777    -0.81000
O426        O  0.01350884  0.50242783  0.71999341    -0.65600
O427        O  0.08376651  0.40379710  0.70710977    -1.12200
C428        C  0.95925937  0.35621250  0.62762721     1.05900
O429        O  0.96408354  0.46076491  0.75228073    -0.78800
O430        O  0.95422141  0.37307020  0.73413140    -0.66400
Ni431      Ni  0.14644531  0.40422207  0.69890285     1.34900
C432        C  0.98018825  0.34175167  0.72520873     0.84700
O433        O  0.09403243  0.48433066  0.74723352    -0.79400
O434        O  0.14926258  0.43710287  0.75367829    -0.89700
C435        C  0.98747325  0.49436664  0.75334595     0.84200
O436        O  0.15103497  0.45386267  0.66653730    -0.67900
O437        O  0.93643746  0.38488430  0.65102044    -0.87200
C438        C  0.12173890  0.46929960  0.64306631     0.85100
C439        C  0.13012884  0.47267023  0.76387759     1.06600
H440        H  0.00864403  0.44011549  0.64926468     0.38400
O441        O  0.01033027  0.42619643  0.67721118    -1.09800
O442        O  0.02109359  0.34665677  0.71399468    -0.66500
Ni443      Ni  0.04562956  0.37783222  0.66551773     1.26300
O444        O  0.08060759  0.47329293  0.65700880    -0.66700
O445        O  0.00228776  0.35254110  0.62757245    -0.79000
C446        C  0.12432898  0.34180745  0.63054670     0.84500
O447        O  0.08693821  0.33300140  0.65009561    -0.66200
Ni448      Ni  0.95082134  0.42328772  0.70078854     1.27400
Ni449      Ni  0.05180912  0.45496763  0.71226185     1.26100
H450        H  0.07851360  0.39103145  0.73560120     0.39000
O451        O  0.58137456  0.11091191  0.51355814    -0.81000
O452        O  0.52329615  0.24901678  0.39614888    -0.65600
O453        O  0.52300545  0.14641869  0.45538415    -1.12200
C454        C  0.61294304  0.08928965  0.33377466     1.05900
O455        O  0.51898177  0.21883500  0.32857071    -0.78800
O456        O  0.50369771  0.13532335  0.33200144    -0.66400
Ni457      Ni  0.52542504  0.14553980  0.51857297     1.34900
C458        C  0.50030101  0.10096130  0.35187640     0.84700
O459        O  0.47721794  0.22467853  0.46772196    -0.79400
O460        O  0.47105261  0.18282369  0.52641860    -0.89700
C461        C  0.51074661  0.24947610  0.35657003     0.84200
O462        O  0.56174452  0.19166050  0.53079111    -0.67900
O463        O  0.59125507  0.11591512  0.31205686    -0.87200
C464        C  0.58029054  0.21771604  0.50551100     0.85100
C465        C  0.45758359  0.21481241  0.50474191     1.06600
H466        H  0.59671503  0.18406498  0.38956841     0.38400
O467        O  0.56834730  0.17063511  0.38725036    -1.09800
O468        O  0.52437599  0.09102627  0.38321993    -0.66500
Ni469      Ni  0.56878538  0.11800175  0.41688331     1.26300
O470        O  0.57039962  0.22161393  0.46460732    -0.66700
O471        O  0.61373418  0.09136580  0.37631589    -0.79000
C472        C  0.61676458  0.11810366  0.48849619     0.84500
O473        O  0.61364758  0.13826292  0.45315558    -0.66200
Ni474      Ni  0.55605106  0.16770786  0.32481857     1.27400
Ni475      Ni  0.52382989  0.19858589  0.42795141     1.26100
H476        H  0.49477933  0.13408613  0.44919850     0.39000
C477        C  0.36582103  0.26659443  0.58647022     0.03100
C478        C  0.39849757  0.23768325  0.56598794    -0.13100
C479        C  0.41805669  0.24301951  0.52311995     0.00600
C480        C  0.40015558  0.27641584  0.49885260    -0.11600
C481        C  0.36509523  0.30406869  0.51730538     0.03100
C482        C  0.34955931  0.29938549  0.56162678    -0.11000
H483        H  0.41130129  0.21201742  0.58404848     0.08700
H484        H  0.41224905  0.28021374  0.46494278     0.06200
H485        H  0.32360320  0.32043641  0.57659264     0.06000
O486        O  0.33676877  0.31521548  0.36830393    -0.81000
O487        O  0.26170688  0.43527781  0.52080337    -0.65600
O488        O  0.27540903  0.36941211  0.41384785    -1.12200
C489        C  0.36433602  0.48571643  0.36488951     1.05900
O490        O  0.24819231  0.48939179  0.47873018    -0.78800
O491        O  0.26996432  0.50479871  0.38994753    -0.66400
Ni492      Ni  0.28486380  0.31073901  0.40967087     1.34900
C493        C  0.25878719  0.47772969  0.36124224     0.84700
O494        O  0.22937199  0.36267228  0.49576035    -0.79400
O495        O  0.23515162  0.30265076  0.45382349    -0.89700
C496        C  0.23737589  0.46691623  0.51196570     0.84200
O497        O  0.32484748  0.30495345  0.45474923    -0.67900
O498        O  0.35531136  0.50262435  0.40381894    -0.87200
C499        C  0.33582925  0.32733168  0.48747744     0.85100
C500        C  0.21872298  0.32496178  0.48771961     1.06600
H501        H  0.34344551  0.42979484  0.45128919     0.38400
O502        O  0.31442188  0.43457771  0.43972234    -1.09800
O503        O  0.25909115  0.43933224  0.37050735    -0.66500
Ni504      Ni  0.31248608  0.40827966  0.38218566     1.26300
O505        O  0.31967725  0.36492255  0.49641887    -0.66700
O506        O  0.34983577  0.44979286  0.35259128    -0.79000
C507        C  0.36993583  0.33906945  0.37391051     0.84500
O508        O  0.36469082  0.37553543  0.39194067    -0.66200
Ni509      Ni  0.30265645  0.49441425  0.44238507     1.27400
Ni510      Ni  0.27203272  0.39861967  0.46923719     1.26100
H511        H  0.24596932  0.37260683  0.40284467     0.39000
C512        C  0.46674938  0.51609462  0.29589518     0.03100
C513        C  0.43864839  0.49853142  0.32890935    -0.13100
C514        C  0.39309122  0.50835186  0.33223129     0.00600
C515        C  0.37569689  0.53822682  0.30328584    -0.11600
C516        C  0.40387577  0.55567014  0.26924835     0.03100
C517        C  0.44855433  0.54277852  0.26500687    -0.11000
H518        H  0.45206185  0.47743696  0.35252607     0.08700
H519        H  0.34053439  0.54683491  0.30640354     0.06200
H520        H  0.46955708  0.55472664  0.23784544     0.06000
C521        C  0.46498776  0.75686637  0.05054480     0.03100
C522        C  0.42978956  0.73003825  0.06090666    -0.13100
C523        C  0.40045435  0.73752953  0.09895526     0.00600
C524        C  0.40502309  0.77521988  0.12504657    -0.11600
C525        C  0.44152738  0.80197405  0.11495873     0.03100
C526        C  0.47127557  0.79141400  0.07878143    -0.11000
H527        H  0.42540155  0.70262700  0.03951425     0.08700
H528        H  0.38267837  0.78197673  0.15413475     0.06200
H529        H  0.50002474  0.81084853  0.07244455     0.06000
O530        O  0.38870889  0.66461234  0.10465177    -0.81000
O531        O  0.28948800  0.59825083  0.23411331    -0.65600
O532        O  0.33378065  0.62615054  0.16507133    -1.12200
C533        C  0.21100718  0.71014096  0.12477212     1.05900
O534        O  0.21577169  0.60484078  0.23400579    -0.78800
O535        O  0.19029845  0.62637753  0.14917358    -0.66400
Ni536      Ni  0.39424119  0.62250694  0.14913678     1.34900
C537        C  0.21583162  0.60828199  0.11935568     0.84700
O538        O  0.36612792  0.61968600  0.25290886    -0.79400
O539        O  0.39970908  0.58178070  0.19551593    -0.89700
C540        C  0.25140281  0.58382682  0.24066356     0.84200
O541        O  0.41472464  0.66472152  0.18875807    -0.67900
O542        O  0.19556111  0.70486117  0.16528696    -0.87200
C543        C  0.39703528  0.69709953  0.20899727     0.85100
C544        C  0.38837451  0.58711024  0.23745735     1.06600
H545        H  0.27133286  0.70153083  0.19663911     0.38400
O546        O  0.27017302  0.67152056  0.19164258    -1.09800
O547        O  0.25783928  0.60860407  0.12291746    -0.66500
Ni548      Ni  0.29309162  0.65832596  0.13224717     1.26300
O549        O  0.35458739  0.69930875  0.21794106    -0.66700
O550        O  0.24713394  0.69219018  0.10697551    -0.79000
C551        C  0.37196070  0.70152603  0.11304612     0.84500
O552        O  0.33287306  0.70612623  0.13288200    -0.66200
Ni553      Ni  0.20737738  0.65714205  0.20148663     1.27400
Ni554      Ni  0.31866511  0.64808946  0.22397300     1.26100
H555        H  0.32450101  0.59743052  0.16251722     0.39000
C556        C  0.11865100  0.51059164  0.52705366     0.03100
C557        C  0.16000071  0.49441851  0.50817929    -0.13100
C558        C  0.19177635  0.47539903  0.53387515     0.00600
C559        C  0.17953966  0.46784959  0.57863369    -0.11600
C560        C  0.13637503  0.48035600  0.59730721     0.03100
C561        C  0.10641306  0.50125352  0.57125481    -0.11000
H562        H  0.16946435  0.49943569  0.47349122     0.08700
H563        H  0.20338821  0.45241063  0.59862949     0.06200
H564        H  0.07427585  0.51222431  0.58607174     0.06000
O565        O  0.42928505  0.87205279  0.14677111    -0.81000
O566        O  0.56937930  0.95752389  0.22785785    -0.65600
O567        O  0.49572172  0.92135056  0.18753608    -1.12200
C568        C  0.60508022  0.82897592  0.10719475     1.05900
O569        O  0.63119920  0.91851155  0.23231444    -0.78800
O570        O  0.63619063  0.91079274  0.14097607    -0.66400
Ni571      Ni  0.43133650  0.91411600  0.19525325     1.34900
C572        C  0.61016229  0.93558457  0.12238031     0.84700
O573        O  0.49349350  0.94891122  0.27854625    -0.79400
O574        O  0.42882098  0.95593242  0.24459279    -0.89700
C575        C  0.61002725  0.95364406  0.23849809     0.84200
O576        O  0.42579618  0.86700072  0.23357905    -0.67900
O577        O  0.62395325  0.82812309  0.14426654    -0.87200
C578        C  0.45757553  0.84616257  0.24830406     0.85100
C579        C  0.45558662  0.96722289  0.27444341     1.06600
H580        H  0.55549044  0.84657162  0.20249987     0.38400
O581        O  0.56257122  0.87477663  0.19502290    -1.09800
O582        O  0.56778708  0.93490259  0.12929279    -0.66500
Ni583      Ni  0.53160643  0.88711784  0.14367144     1.26300
O584        O  0.49494281  0.86294354  0.25482184    -0.66700
O585        O  0.57041284  0.85222256  0.10169742    -0.79000
C586        C  0.45434083  0.83919834  0.14201186     0.84500
O587        O  0.49421538  0.83976337  0.15430046    -0.66200
Ni588      Ni  0.62574286  0.87308778  0.18879969     1.27400
Ni589      Ni  0.52940140  0.91107692  0.23861390     1.26100
H590        H  0.49953469  0.95033851  0.18006939     0.39000
C591        C  0.66329896  0.74069491  0.03516544     0.03100
C592        C  0.68108927  0.76341170  0.99953046    -0.13100
C593        C  0.67520761  0.80693885  0.99837158     0.00600
C594        C  0.64695259  0.82743122  0.03213516    -0.11600
C595        C  0.62741496  0.80503168  0.06811579     0.03100
C596        C  0.63668010  0.76148586  0.06982378    -0.11000
H597        H  0.70306691  0.74708124  0.97434766     0.08700
H598        H  0.64253922  0.86114951  0.03211122     0.06200
H599        H  0.62434074  0.74423410  0.09836385     0.06000
O600        O  0.81964789  0.25918762  0.71855161    -0.81000
O601        O  0.77911341  0.15034206  0.56161842    -0.65600
O602        O  0.76349075  0.19888757  0.67898436    -1.12200
C603        C  0.85883060  0.08758159  0.72179240     1.05900
O604        O  0.77473248  0.08551637  0.58520403    -0.78800
O605        O  0.75575787  0.08459667  0.66865553    -0.66400
Ni606      Ni  0.76549048  0.25961524  0.68453619     1.34900
C607        C  0.75471792  0.08549384  0.71032564     0.84700
O608        O  0.72995043  0.21317308  0.59499549    -0.79400
O609        O  0.71386133  0.26445589  0.64685534    -0.89700
C610        C  0.76583613  0.11301455  0.55736293     0.84200
O611        O  0.80428051  0.27548606  0.63532424    -0.67900
O612        O  0.84904988  0.07100134  0.68437610    -0.87200
C613        C  0.83110354  0.25292094  0.61036500     0.85100
C614        C  0.70675704  0.24515002  0.60950929     1.06600
H615        H  0.84542818  0.14703680  0.63552067     0.38400
O616        O  0.81549872  0.14028227  0.64636356    -1.09800
O617        O  0.75859646  0.12136740  0.72948958    -0.66500
Ni618      Ni  0.80417930  0.16172825  0.70838464     1.26300
O619        O  0.82362818  0.21387684  0.60255438    -0.66700
O620        O  0.84601227  0.12461141  0.73491293    -0.79000
C621        C  0.85431564  0.23656273  0.70638428     0.84500
O622        O  0.85057116  0.19850600  0.69453550    -0.66200
Ni623      Ni  0.81123366  0.08163690  0.63505721     1.27400
Ni624      Ni  0.77346579  0.17695147  0.61963446     1.26100
H625        H  0.73372360  0.19154544  0.68907505     0.39000
C626        C  0.80455432  0.97625108  0.72188043     0.03100
C627        C  0.78680389  0.01319460  0.70507322    -0.13100
C628        C  0.76306920  0.04428873  0.73213099     0.00600
C629        C  0.75152830  0.03514711  0.77715520    -0.11600
C630        C  0.76299180  0.99512985  0.79325743     0.03100
C631        C  0.78983661  0.96692289  0.76549294    -0.11000
H632        H  0.79335530  0.01908213  0.67018340     0.08700
H633        H  0.73372528  0.05833087  0.79899456     0.06200
H634        H  0.79994154  0.93729494  0.77847080     0.06000
O635        O  0.83624755  0.82188730  0.86308059    -0.81000
O636        O  0.74595155  0.94162268  0.00332243    -0.65600
O637        O  0.76711869  0.87613458  0.89703509    -1.12200
C638        C  0.85633129  0.99341664  0.85134264     1.05900
O639        O  0.73082255  0.99789996  0.96470889    -0.78800
O640        O  0.75393798  0.00996261  0.87210292    -0.66400
Ni641      Ni  0.77970404  0.81748976  0.89750562     1.34900
C642        C  0.75431981  0.98274859  0.84038480     0.84700
O643        O  0.71555022  0.86773304  0.97757856    -0.79400
O644        O  0.72500204  0.80941225  0.93350649    -0.89700
C645        C  0.72326225  0.97504408  0.99889920     0.84200
O646        O  0.81281705  0.81455540  0.94947958    -0.67900
O647        O  0.83933357  0.01355520  0.88653791    -0.87200
C648        C  0.82514223  0.84333381  0.97562130     0.85100
C649        C  0.70602449  0.82995655  0.96720374     1.06600
H650        H  0.82783372  0.94162434  0.93919471     0.38400
O651        O  0.80013788  0.94408400  0.92464909    -1.09800
O652        O  0.75555040  0.94411733  0.84890663    -0.66500
Ni653      Ni  0.80705700  0.91489993  0.86824190     1.26300
O654        O  0.80608607  0.87956296  0.97937972    -0.66700
O655        O  0.84686710  0.95540946  0.84144630    -0.79000
C656        C  0.86744729  0.84715842  0.87140220     0.84500
O657        O  0.85882738  0.88462964  0.88555471    -0.66200
Ni658      Ni  0.78580587  0.00347476  0.92566813     1.27400
Ni659      Ni  0.75745262  0.90662231  0.95155791     1.26100
H660        H  0.73928064  0.87790132  0.88258958     0.39000
O661        O  0.15308270  0.71182827  0.96958161    -0.81000
O662        O  0.02865731  0.64138767  0.86924653    -0.65600
O663        O  0.08592145  0.68274293  0.91941173    -1.12200
C664        C  0.96080656  0.75195051  0.99310575     1.05900
O665        O  0.96062434  0.62712535  0.89057296    -0.78800
O666        O  0.97320878  0.71227523  0.88521122    -0.66400
Ni667      Ni  0.14905441  0.67768255  0.91717664     1.34900
C668        C  0.99381741  0.74619226  0.89092571     0.84700
O669        O  0.09902642  0.59545774  0.89092264    -0.79400
O670        O  0.14966781  0.64010734  0.86528121    -0.89700
C671        C  0.99521013  0.61885871  0.86489422     0.84200
O672        O  0.15395172  0.63139581  0.95512716    -0.67900
O673        O  0.94003245  0.72560913  0.96921149    -0.87200
C674        C  0.12617047  0.61580217  0.98321094     0.85100
C675        C  0.13246335  0.60382343  0.86499606     1.06600
H676        H  0.00400675  0.65652302  0.98468170     0.38400
O677        O  0.01018814  0.66793814  0.95552299    -1.09800
O678        O  0.02569925  0.75001831  0.91713296    -0.66500
Ni679      Ni  0.04742679  0.71469997  0.96334548     1.26300
O680        O  0.08372070  0.61908556  0.97967744    -0.66700
O681        O  0.00241490  0.74662769  0.00148852    -0.79000
C682        C  0.13132086  0.74179872  0.98990270     0.84500
O683        O  0.09269798  0.75464620  0.97873497    -0.66200
Ni684      Ni  0.95304942  0.67619188  0.93098325     1.27400
Ni685      Ni  0.05531765  0.63147291  0.92397459     1.26100
H686        H  0.08027786  0.69418071  0.89084436     0.39000
C687        C  0.97937720  0.83104296  0.80840754     0.03100
C688        C  0.93894413  0.85042368  0.82543780    -0.13100
C689        C  0.91449277  0.83337350  0.86142961     0.00600
C690        C  0.93291498  0.79920901  0.88287097    -0.11600
C691        C  0.97625015  0.78354921  0.86988815     0.03100
C692        C  0.99942245  0.79989891  0.83322681    -0.11000
H693        H  0.92370707  0.87520342  0.80730055     0.08700
H694        H  0.91319640  0.78425374  0.90891303     0.06200
H695        H  0.03021502  0.78402677  0.82103783     0.06000
C696        C  0.01976108  0.50518894  0.87395557     0.03100
C697        C  0.01192688  0.48892138  0.83063755    -0.13100
C698        C  0.99640398  0.51472695  0.79738521     0.00600
C699        C  0.99188945  0.55846489  0.80663827    -0.11600
C700        C  0.00324538  0.57513690  0.84863458     0.03100
C701        C  0.01946328  0.54860873  0.88026590    -0.11000
H702        H  0.01435812  0.45548312  0.82347240     0.08700
H703        H  0.97923022  0.57892170  0.78203123     0.06200
H704        H  0.02526448  0.56151714  0.91324595     0.06000
C705        C  0.22325156  0.52777149  0.81964623     0.03100
C706        C  0.20094548  0.56305101  0.84010146    -0.13100
C707        C  0.15477191  0.56878465  0.83795735     0.00600
C708        C  0.13059898  0.53853651  0.81440118    -0.11600
C709        C  0.15277986  0.50286643  0.79337644     0.03100
C710        C  0.19892759  0.49791550  0.79675989    -0.11000
H711        H  0.21940473  0.58557834  0.85904750     0.08700
H712        H  0.09497369  0.54295433  0.81217139     0.06200
H713        H  0.21659379  0.47179187  0.77918428     0.06000
C714        C  0.71336207  0.03853755  0.47833785     0.03100
C715        C  0.67085448  0.05764161  0.47543738    -0.13100
C716        C  0.66073765  0.09765643  0.49538395     0.00600
C717        C  0.69403863  0.11877412  0.51812532    -0.11600
C718        C  0.73643236  0.09956098  0.52195690     0.03100
C719        C  0.74558499  0.06005611  0.50141491    -0.11000
H720        H  0.64562175  0.04146230  0.45757910     0.08700
H721        H  0.68622736  0.14886540  0.53472563     0.06200
H722        H  0.77716557  0.04445097  0.50672775     0.06000
C723        C  0.93984911  0.26960031  0.54032394     0.03100
C724        C  0.95846937  0.30302018  0.56418004    -0.13100
C725        C  0.93518727  0.32353435  0.60088137     0.00600
C726        C  0.89204669  0.30862224  0.61434306    -0.11600
C727        C  0.87372128  0.27280352  0.59258609     0.03100
C728        C  0.89796748  0.25436697  0.55539132    -0.11000
H729        H  0.99170178  0.31319796  0.55413686     0.08700
H730        H  0.87412161  0.32307028  0.64347160     0.06200
H731        H  0.88335153  0.22862345  0.53746645     0.06000
C732        C  0.97865004  0.23075860  0.68150384     0.03100
C733        C  0.99280364  0.26748319  0.70253515    -0.13100
C734        C  0.96228020  0.29881951  0.71979422     0.00600
C735        C  0.91587081  0.29017881  0.72198102    -0.11600
C736        C  0.90113015  0.25215572  0.70290036     0.03100
C737        C  0.93295227  0.22547654  0.67897446    -0.11000
H738        H  0.02820059  0.27224610  0.70487456     0.08700
H739        H  0.89178480  0.31294789  0.73680391     0.06200
H740        H  0.92241058  0.19795212  0.66075572     0.06000
C741        C  0.50986723  0.74125264  0.23098940     0.03100
C742        C  0.47565793  0.71633344  0.21732082    -0.13100
C743        C  0.43020208  0.72983336  0.22224860     0.00600
C744        C  0.42089170  0.77272737  0.23623317    -0.11600
C745        C  0.45657560  0.79885871  0.24942221     0.03100
C746        C  0.49886893  0.77995922  0.25180916    -0.11000
H747        H  0.48526509  0.68549093  0.20352817     0.08700
H748        H  0.38745680  0.78580241  0.23501178     0.06200
H749        H  0.52533052  0.79737272  0.26628210     0.06000
C750        C  0.70448916  0.01074344  0.29263164     0.03100
C751        C  0.68205528  0.04558170  0.31409842    -0.13100
C752        C  0.63650837  0.05338872  0.30855880     0.00600
C753        C  0.61303681  0.02525672  0.28109533    -0.11600
C754        C  0.63431568  0.98851988  0.26143832     0.03100
C755        C  0.68036206  0.98254241  0.26703519    -0.11000
H756        H  0.70017164  0.06688911  0.33486178     0.08700
H757        H  0.57810004  0.03109868  0.27657060     0.06200
H758        H  0.69806036  0.95568279  0.25092377     0.06000
C759        C  0.21280045  0.80219860  0.05636573     0.03100
C760        C  0.18310336  0.79226660  0.02325087    -0.13100
C761        C  0.15369388  0.75890009  0.02895178     0.00600
C762        C  0.15921248  0.73245439  0.06553026    -0.11600
C763        C  0.19030466  0.74190979  0.09767568     0.03100
C764        C  0.21393906  0.77828153  0.09431088    -0.11000
H765        H  0.18394691  0.80942095  0.99265541     0.08700
H766        H  0.14162799  0.70337555  0.06702505     0.06200
H767        H  0.23919430  0.78393731  0.11809201     0.06000
C768        C  0.65146888  0.31126903  0.52402228     0.03100
C769        C  0.67744209  0.29998114  0.55954444    -0.13100
C770        C  0.67224879  0.26064388  0.57902181     0.00600
C771        C  0.64036608  0.23307180  0.56122618    -0.11600
C772        C  0.61405795  0.24509374  0.52546779     0.03100
C773        C  0.61988864  0.28432342  0.50807025    -0.11000
H774        H  0.70360354  0.32046790  0.56974693     0.08700
H775        H  0.63690748  0.20205194  0.57439722     0.06200
H776        H  0.60078677  0.29364120  0.48031600     0.06000
C777        C  0.29901783  0.47409197  0.24073168     0.03100
C778        C  0.28474792  0.46236581  0.28379776    -0.13100
C779        C  0.25874911  0.48897926  0.31357502     0.00600
C780        C  0.24326462  0.52802032  0.29878579    -0.11600
C781        C  0.25331498  0.53943137  0.25418586     0.03100
C782        C  0.28182840  0.51251403  0.22624951    -0.11000
H783        H  0.29615031  0.43269256  0.29562775     0.08700
H784        H  0.22645071  0.55034152  0.32233142     0.06200
H785        H  0.29215276  0.52304714  0.19335168     0.06000
C786        C  0.20439474  0.53406834  0.01912720     0.03100
C787        C  0.21842960  0.55233079  0.05909489    -0.13100
C788        C  0.19665660  0.58776300  0.07932454     0.00600
C789        C  0.16042390  0.60609469  0.05781002    -0.11600
C790        C  0.14702987  0.58927556  0.01644629     0.03100
C791        C  0.16859619  0.55264756  0.99852747    -0.11000
H792        H  0.24631936  0.53888154  0.07515203     0.08700
H793        H  0.14519771  0.63498367  0.07135390     0.06200
H794        H  0.16018564  0.54096122  0.96582710     0.06000
C795        C  0.38835546  0.05719178  0.33670502     0.03100
C796        C  0.42207056  0.08397546  0.34761348    -0.13100
C797        C  0.46626422  0.07165491  0.33903898     0.00600
C798        C  0.47723864  0.03203149  0.31845046    -0.11600
C799        C  0.44349666  0.00544088  0.30380763     0.03100
C800        C  0.39863826  0.01835530  0.31389508    -0.11000
H801        H  0.41384126  0.11408732  0.36429178     0.08700
H802        H  0.51189049  0.02285160  0.31209246     0.06200
H803        H  0.37181053  0.99859089  0.30386742     0.06000
C804        C  0.46313915  0.33418761  0.28640585     0.03100
C805        C  0.49267424  0.30402635  0.30208225    -0.13100
C806        C  0.48294777  0.28532328  0.34301475     0.00600
C807        C  0.44242639  0.29649534  0.36730284    -0.11600
C808        C  0.41388336  0.32790861  0.35219302     0.03100
C809        C  0.42538940  0.34751936  0.31262935    -0.11000
H810        H  0.52128760  0.29275645  0.28090304     0.08700
H811        H  0.43228064  0.27917760  0.39612069     0.06200
H812        H  0.40244079  0.37025333  0.29983485     0.06000
C813        C  0.16888197  0.24633611  0.56702104     0.03100
C814        C  0.19010421  0.26295865  0.52871171    -0.13100
C815        C  0.18831076  0.30623561  0.52226458     0.00600
C816        C  0.16459593  0.33230016  0.55508291    -0.11600
C817        C  0.14294444  0.31511911  0.59301088     0.03100
C818        C  0.14437206  0.27215417  0.59801725    -0.11000
H819        H  0.21079304  0.24256829  0.50602648     0.08700
H820        H  0.16453307  0.36607376  0.55227444     0.06200
H821        H  0.13033217  0.25936131  0.62841037     0.06000
C822        C  0.93641322  0.87000611  0.01461721     0.03100
C823        C  0.95856986  0.83001591  0.01405202    -0.13100
C824        C  0.93557617  0.79275434  0.00533210     0.00600
C825        C  0.88941341  0.79677932  0.99742232    -0.11600
C826        C  0.86760456  0.83658549  0.99731481     0.03100
C827        C  0.89123083  0.87232890  0.00764875    -0.11000
H828        H  0.99389933  0.82786112  0.01919213     0.08700
H829        H  0.87129867  0.76931363  0.98756399     0.06200
H830        H  0.87520849  0.90308035  0.00754483     0.06000
C831        C  0.63867352  0.03925980  0.07415394     0.03100
C832        C  0.61720671  0.00869915  0.09902438    -0.13100
C833        C  0.63041160  0.96673848  0.09248971     0.00600
C834        C  0.66553065  0.95558085  0.06021220    -0.11600
C835        C  0.68583459  0.98617133  0.03292821     0.03100
C836        C  0.67135093  0.02797213  0.03996211    -0.11000
H837        H  0.59300123  0.01797769  0.12606941     0.08700
H838        H  0.67689677  0.92321170  0.05636584     0.06200
H839        H  0.68831559  0.05234916  0.02164132     0.06000
C840        C  0.94821558  0.01315571  0.76059641     0.03100
C841        C  0.92664552  0.99900428  0.80062535    -0.13100
C842        C  0.88446601  0.01568475  0.81681293     0.00600
C843        C  0.86491955  0.04833651  0.79325724    -0.11600
C844        C  0.88409179  0.06049646  0.75158258     0.03100
C845        C  0.92433852  0.04119346  0.73495047    -0.11000
H846        H  0.94242102  0.97526483  0.81960929     0.08700
H847        H  0.83255822  0.06126861  0.80507873     0.06200
H848        H  0.93749073  0.04921908  0.70200877     0.06000
C849        C  0.59772178  0.42029733  0.30541426    -0.17900
C850        C  0.64289093  0.41102317  0.29399174    -0.20100
C851        C  0.67016954  0.44111870  0.27373252     0.20600
C852        C  0.65213639  0.48145198  0.26667062    -0.03000
C853        C  0.60695980  0.49072602  0.27812016    -0.06000
C854        C  0.57929534  0.45976635  0.29667641     0.20900
C855        C  0.58905571  0.53044784  0.26887159     0.19000
C856        C  0.61597790  0.56032815  0.24810421    -0.17500
C857        C  0.66091638  0.55163503  0.23791804    -0.19700
C858        C  0.67889184  0.51225956  0.24661147     0.20500
C859        C  0.72303756  0.50293418  0.23411275    -0.32800
C860        C  0.74140857  0.46333159  0.24119721     0.01200
C861        C  0.71508016  0.43195672  0.26021803    -0.24100
C862        C  0.53337015  0.46824601  0.30384525    -0.28700
C863        C  0.51538556  0.50762843  0.29350745     0.06900
C864        C  0.54398540  0.53907955  0.27837253    -0.27300
H865        H  0.57697857  0.39630908  0.32007108     0.11600
H866        H  0.65632323  0.38020020  0.30041698     0.12700
H867        H  0.60202570  0.58983513  0.23811983     0.11800
H868        H  0.68126348  0.57519063  0.22188404     0.11100
H869        H  0.74348635  0.52666923  0.21838070     0.16400
H870        H  0.72972054  0.40132602  0.26541221     0.12400
H871        H  0.51165498  0.44358655  0.31533359     0.15200
H872        H  0.53095492  0.57016484  0.27238620     0.15000
C873        C  0.61681251  0.48134134  0.43970384    -0.17900
C874        C  0.60729832  0.44786483  0.46751528    -0.20100
C875        C  0.63550349  0.41211182  0.46545178     0.20600
C876        C  0.67017758  0.40778789  0.43153150    -0.03000
C877        C  0.67925314  0.44110513  0.40321256    -0.06000
C878        C  0.65458641  0.47919611  0.40962862     0.20900
C879        C  0.71725020  0.43868333  0.37301976     0.19000
C880        C  0.74156056  0.40081997  0.36634951    -0.17500
C881        C  0.73223958  0.36748258  0.39413230    -0.19700
C882        C  0.69856460  0.37187977  0.42861063     0.20500
C883        C  0.69398830  0.34190762  0.46130691    -0.32800
C884        C  0.66125440  0.34721716  0.49650544     0.01200
C885        C  0.63096399  0.38139032  0.49760686    -0.24100
C886        C  0.67330642  0.51580187  0.39248433    -0.28700
C887        C  0.71858331  0.51382144  0.37666765     0.06900
C888        C  0.73448427  0.47578657  0.35628949    -0.27300
H889        H  0.59703878  0.51009157  0.44448543     0.11600
H890        H  0.57973923  0.45108992  0.49256302     0.12700
H891        H  0.77016883  0.39826676  0.34247448     0.11800
H892        H  0.75327912  0.33943698  0.39061463     0.11100
H893        H  0.71534549  0.31398681  0.45913052     0.16400
H894        H  0.60398387  0.38381427  0.52338762     0.12400
H895        H  0.65864212  0.54592093  0.40376917     0.15200
H896        H  0.76720802  0.47439499  0.33881444     0.15000
C897        C  0.93182220  0.37768252  0.83721630    -0.17900
C898        C  0.96486145  0.38360649  0.86740412    -0.20100
C899        C  0.96658336  0.42211993  0.89074500     0.20600
C900        C  0.93055694  0.45151679  0.88956041    -0.03000
C901        C  0.90226574  0.44836440  0.85454114    -0.06000
C902        C  0.90393839  0.41174541  0.82751999     0.20900
C903        C  0.87730351  0.48382156  0.84287181     0.19000
C904        C  0.87370915  0.51909990  0.87222558    -0.17500
C905        C  0.89928568  0.52104232  0.90975350    -0.19700
C906        C  0.93063234  0.48886167  0.91606310     0.20500
C907        C  0.96967409  0.49717089  0.93792834    -0.32800
C908        C  0.00883033  0.48006122  0.91495765     0.01200
C909        C  0.00667690  0.43647262  0.90720633    -0.24100
C910        C  0.88188278  0.41143396  0.78842890    -0.28700
C911        C  0.86616982  0.44915891  0.77079363     0.06900
C912        C  0.86065227  0.48463748  0.80014612    -0.27300
H913        H  0.93208276  0.34866009  0.81745069     0.11600
H914        H  0.99094582  0.35991924  0.86948229     0.12700
H915        H  0.85364209  0.54620116  0.86454160     0.11800
H916        H  0.89919765  0.54999490  0.92963318     0.11100
H917        H  0.97151603  0.52689268  0.95617293     0.16400
H918        H  0.03724973  0.41815618  0.90018751     0.12400
H919        H  0.88043167  0.38163775  0.77115254     0.15200
H920        H  0.84475143  0.51310588  0.78979548     0.15000
C921        C  0.37074991  0.59050315  0.79750136    -0.17900
C922        C  0.41685152  0.58630814  0.78896292    -0.20100
C923        C  0.43769726  0.54660201  0.78788794     0.20600
C924        C  0.41212013  0.51073774  0.79631555    -0.03000
C925        C  0.36568312  0.51503541  0.80552258    -0.06000
C926        C  0.34495104  0.55508464  0.80547414     0.20900
C927        C  0.33992045  0.47927901  0.81378365     0.19000
C928        C  0.36093825  0.43955807  0.81328213    -0.17500
C929        C  0.40704450  0.43522249  0.80358821    -0.19700
C930        C  0.43281075  0.47061397  0.79482153     0.20500
C931        C  0.47880264  0.46666556  0.78410680    -0.32800
C932        C  0.50442288  0.50242523  0.77573519     0.01200
C933        C  0.48365362  0.54222548  0.77810375    -0.24100
C934        C  0.29859762  0.55900725  0.81195413    -0.28700
C935        C  0.27248560  0.52352439  0.81887857     0.06900
C936        C  0.29348580  0.48383997  0.82106474    -0.27300
H937        H  0.35520226  0.62143315  0.79746951     0.11600
H938        H  0.43613616  0.61407209  0.78261071     0.12700
H939        H  0.34162551  0.41180549  0.81963302     0.11800
H940        H  0.42250731  0.40420577  0.80272498     0.11100
H941        H  0.49448086  0.43571316  0.78152157     0.16400
H942        H  0.50332322  0.56987443  0.77229908     0.12400
H943        H  0.28273326  0.58958146  0.80953131     0.15200
H944        H  0.27358787  0.45639868  0.82722056     0.15000
C945        C  0.68912954  0.84668543  0.47493176    -0.17900
C946        C  0.67541255  0.88882155  0.47790087    -0.20100
C947        C  0.70531143  0.92023952  0.46567250     0.20600
C948        C  0.74930100  0.90889876  0.44951811    -0.03000
C949        C  0.76302604  0.86616303  0.44609636    -0.06000
C950        C  0.73268954  0.83500200  0.45878972     0.20900
C951        C  0.80745519  0.85476713  0.43156910     0.19000
C952        C  0.83752506  0.88634369  0.41990237    -0.17500
C953        C  0.82391847  0.92866617  0.42317694    -0.19700
C954        C  0.78001130  0.94027422  0.43834120     0.20500
C955        C  0.76684787  0.98268857  0.44440438    -0.32800
C956        C  0.72362663  0.99433695  0.46251703     0.01200
C957        C  0.69266429  0.96277491  0.47166337    -0.24100
C958        C  0.74678517  0.79281111  0.45673339    -0.28700
C959        C  0.79149612  0.78090372  0.44413937     0.06900
C960        C  0.82143037  0.81225149  0.43066658    -0.27300
H961        H  0.66576258  0.82328438  0.48601032     0.11600
H962        H  0.64169167  0.89688306  0.49080757     0.12700
H963        H  0.87178520  0.87835914  0.40880381     0.11800
H964        H  0.84801015  0.95238732  0.41456067     0.11100
H965        H  0.79089943  0.00673829  0.43680571     0.16400
H966        H  0.65962640  0.97120547  0.48627229     0.12400
H967        H  0.72303978  0.76921434  0.46641893     0.15200
H968        H  0.85606066  0.80392225  0.42156409     0.15000
C969        C  0.64126041  0.79493340  0.27160351    -0.17900
C970        C  0.65617434  0.80097390  0.31453620    -0.20100
C971        C  0.65364658  0.76827383  0.34458285     0.20600
C972        C  0.64283062  0.72760154  0.32914332    -0.03000
C973        C  0.62401711  0.72251262  0.28775041    -0.06000
C974        C  0.62126997  0.75702171  0.25985707     0.20900
C975        C  0.59957849  0.68598670  0.27895108     0.19000
C976        C  0.60216137  0.65194162  0.30695674    -0.17500
C977        C  0.62557973  0.65514752  0.34532907    -0.19700
C978        C  0.64207370  0.69405028  0.35844812     0.20500
C979        C  0.64826262  0.70207968  0.40314565    -0.32800
C980        C  0.64651936  0.74373787  0.42005345     0.01200
C981        C  0.65344346  0.77662729  0.39075865    -0.24100
C982        C  0.59078214  0.75587452  0.22655781    -0.28700
C983        C  0.55705597  0.72589606  0.22899537     0.06900
C984        C  0.56607794  0.68773841  0.24870230    -0.27300
H985        H  0.63969507  0.82157217  0.25024430     0.11600
H986        H  0.66583047  0.83202195  0.32542264     0.12700
H987        H  0.58193024  0.62475180  0.30231392     0.11800
H988        H  0.62441208  0.62935891  0.36798256     0.11100
H989        H  0.64404938  0.67634257  0.42566059     0.16400
H990        H  0.65315584  0.80870788  0.40355347     0.12400
H991        H  0.58553365  0.78357701  0.20781556     0.15200
H992        H  0.54187323  0.66298945  0.24824344     0.15000
C993        C  0.55180645  0.81663364  0.92525710    -0.17900
C994        C  0.57498921  0.81226078  0.88371467    -0.20100
C995        C  0.58309849  0.77234459  0.86380632     0.20600
C996        C  0.57026000  0.73623280  0.88690467    -0.03000
C997        C  0.54766347  0.74065424  0.92928040    -0.06000
C998        C  0.53718631  0.78109913  0.94762176     0.20900
C999        C  0.53308125  0.70485295  0.95192994     0.19000
C1000       C  0.54271787  0.66481994  0.93251317    -0.17500
C1001       C  0.56409873  0.66043822  0.88975962    -0.19700
C1002       C  0.57690565  0.69602181  0.86624524     0.20500
C1003       C  0.59246198  0.69262009  0.82120913    -0.32800
C1004       C  0.60105286  0.72903720  0.79733745     0.01200
C1005       C  0.59984765  0.76827017  0.81959671    -0.24100
C1006       C  0.51036704  0.78559859  0.98696301    -0.28700
C1007       C  0.49497711  0.75033539  0.00968826     0.06900
C1008       C  0.50752296  0.70991093  0.99259259    -0.27300
H1009       H  0.54417574  0.84785033  0.93931182     0.11600
H1010       H  0.58461497  0.84016040  0.86621055     0.12700
H1011       H  0.53207245  0.63699370  0.94957594     0.11800
H1012       H  0.56922969  0.62933764  0.87450175     0.11100
H1013       H  0.59341460  0.66231665  0.80370171     0.16400
H1014       H  0.60686885  0.79612826  0.80082391     0.12400
H1015       H  0.50003487  0.81693743  0.99883385     0.15200
H1016       H  0.49661610  0.68249737  0.01024331     0.15000
C1017       C  0.72514333  0.14263739  0.14318680    -0.17900
C1018       C  0.74917778  0.17833584  0.13265979    -0.20100
C1019       C  0.73352649  0.20596924  0.10146288     0.20600
C1020       C  0.69060357  0.20092761  0.08560810    -0.03000
C1021       C  0.66727706  0.16415217  0.09461871    -0.06000
C1022       C  0.68599725  0.13395648  0.12169465     0.20900
C1023       C  0.62924974  0.15471016  0.07085359     0.19000
C1024       C  0.61105616  0.18489050  0.04399751    -0.17500
C1025       C  0.63340744  0.22211255  0.03642291    -0.19700
C1026       C  0.67437048  0.22916339  0.05503689     0.20500
C1027       C  0.70257432  0.25962498  0.03774045    -0.32800
C1028       C  0.74867459  0.25614858  0.04351438     0.01200
C1029       C  0.76266812  0.23361729  0.08007472    -0.24100
C1030       C  0.66936005  0.09353119  0.12122697    -0.28700
C1031       C  0.63714751  0.08254126  0.09132534     0.06900
C1032       C  0.61454197  0.11342326  0.06898916    -0.27300
H1033       H  0.73949087  0.11986967  0.16450648     0.11600
H1034       H  0.78170201  0.18232963  0.14586096     0.12700
H1035       H  0.58178861  0.17815946  0.02588451     0.11800
H1036       H  0.62163763  0.24274485  0.01171297     0.11100
H1037       H  0.69005206  0.28077818  0.01370437     0.16400
H1038       H  0.79732750  0.23217664  0.08788228     0.12400
H1039       H  0.68642785  0.06907308  0.13834449     0.15200
H1040       H  0.58953414  0.10440513  0.04610939     0.15000
C1041       C  0.12914636  0.91033008  0.75185996    -0.17900
C1042       C  0.08325717  0.91804451  0.76144774    -0.20100
C1043       C  0.06273792  0.95541483  0.74907896     0.20600
C1044       C  0.08922556  0.98572637  0.72760638    -0.03000
C1045       C  0.13592149  0.97886661  0.71969920    -0.06000
C1046       C  0.15599078  0.94076472  0.73145048     0.20900
C1047       C  0.16259502  0.01060943  0.70111750     0.19000
C1048       C  0.14233099  0.04847219  0.68980514    -0.17500
C1049       C  0.09599195  0.05432519  0.69546335    -0.19700
C1050       C  0.06923744  0.02325651  0.71468599     0.20500
C1051       C  0.02303817  0.02975050  0.72228920    -0.32800
C1052       C  0.99616970  0.00127111  0.74641523     0.01200
C1053       C  0.01659009  0.96350064  0.75891197    -0.24100
C1054       C  0.20267688  0.93460629  0.72439543    -0.28700
C1055       C  0.22975747  0.96673239  0.70729949     0.06900
C1056       C  0.20912561  0.00442183  0.69524145    -0.27300
H1057       H  0.14387335  0.88104754  0.76169203     0.11600
H1058       H  0.06384955  0.89517520  0.77938563     0.12700
H1059       H  0.16229854  0.07355030  0.67636631     0.11800
H1060       H  0.08121654  0.08353458  0.68555371     0.11100
H1061       H  0.00866338  0.05809943  0.71038470     0.16400
H1062       H  0.99680962  0.94025238  0.77606238     0.12400
H1063       H  0.21820138  0.90577430  0.73450159     0.15200
H1064       H  0.22953803  0.02931486  0.68195239     0.15000
C1065       C  0.09097411  0.85363983  0.06919687    -0.17900
C1066       C  0.07416822  0.88355003  0.04164864    -0.20100
C1067       C  0.03146815  0.90063448  0.05217348     0.20600
C1068       C  0.01059672  0.89551743  0.09529504    -0.03000
C1069       C  0.02662610  0.86400341  0.12176726    -0.06000
C1070       C  0.06476518  0.84039780  0.10607066     0.20900
C1071       C  0.00008813  0.85120106  0.15909178     0.19000
C1072       C  0.96175042  0.87467607  0.17396852    -0.17500
C1073       C  0.94557384  0.90602695  0.14752357    -0.19700
C1074       C  0.96732374  0.91273668  0.10576958     0.20500
C1075       C  0.94261480  0.92518448  0.07033039    -0.32800
C1076       C  0.95825668  0.90963213  0.02775587     0.01200
C1077       C  0.00435140  0.91113844  0.01781555    -0.24100
C1078       C  0.07299811  0.80166371  0.12411199    -0.28700
C1079       C  0.04433474  0.78669482  0.15848295     0.06900
C1080       C  0.00960749  0.81283037  0.17769924    -0.27300
H1081       H  0.12193528  0.83791181  0.05911924     0.11600
H1082       H  0.09150904  0.88859769  0.00958029     0.12700
H1083       H  0.94166619  0.86574445  0.20321880     0.11800
H1084       H  0.91297194  0.92012083  0.15654468     0.11100
H1085       H  0.90711272  0.93148703  0.07687760     0.16400
H1086       H  0.01711219  0.90574852  0.98345681     0.12400
H1087       H  0.10072457  0.78244361  0.11030384     0.15200
H1088       H  0.98921318  0.80277688  0.20630572     0.15000
C1089       C  0.17755338  0.57691731  0.41885400    -0.17900
C1090       C  0.21770042  0.59842210  0.41907759    -0.20100
C1091       C  0.22652121  0.62514287  0.45543149     0.20600
C1092       C  0.19404225  0.63164378  0.49112211    -0.03000
C1093       C  0.15407654  0.60965171  0.49114821    -0.06000
C1094       C  0.14624432  0.58130257  0.45545694     0.20900
C1095       C  0.12331282  0.61297807  0.52868936     0.19000
C1096       C  0.13004071  0.64229732  0.56330636    -0.17500
C1097       C  0.16907139  0.66556203  0.56245541    -0.19700
C1098       C  0.20188325  0.65933609  0.52729758     0.20500
C1099       C  0.24146571  0.68173820  0.52655415    -0.32800
C1100       C  0.27250112  0.67736581  0.48970218     0.01200
C1101       C  0.26626792  0.64715447  0.45569203    -0.24100
C1102       C  0.11111284  0.55315122  0.46106148    -0.28700
C1103       C  0.09579145  0.54618278  0.50540602     0.06900
C1104       C  0.09047641  0.58252171  0.53336634    -0.27300
H1105       H  0.17227428  0.55492785  0.39151997     0.11600
H1106       H  0.24214170  0.59375440  0.39115670     0.12700
H1107       H  0.10635205  0.64567560  0.59200586     0.11800
H1108       H  0.17417979  0.68750539  0.58989299     0.11100
H1109       H  0.24572517  0.70609844  0.55191168     0.16400
H1110       H  0.28965549  0.64504553  0.42660671     0.12400
H1111       H  0.10827462  0.52817077  0.43609152     0.15200
H1112       H  0.07086153  0.58150003  0.56483827     0.15000
C1113       C  0.12565845  0.10010535  0.58194285    -0.17900
C1114       C  0.13931261  0.05794266  0.57916031    -0.20100
C1115       C  0.18459842  0.04684915  0.58135664     0.20600
C1116       C  0.21575799  0.07802999  0.59059506    -0.03000
C1117       C  0.20224761  0.12040851  0.59246100    -0.06000
C1118       C  0.15728562  0.13150660  0.58621219     0.20900
C1119       C  0.23465335  0.15165857  0.59574370     0.19000
C1120       C  0.27923300  0.14044226  0.60143978    -0.17500
C1121       C  0.29244080  0.09840843  0.60076383    -0.19700
C1122       C  0.26135022  0.06727319  0.59296119     0.20500
C1123       C  0.27609081  0.02661196  0.58135345    -0.32800
C1124       C  0.24623643  0.99726623  0.56516620     0.01200
C1125       C  0.20006481  0.00613984  0.56958060    -0.24100
C1126       C  0.14573240  0.17351499  0.58040065    -0.28700
C1127       C  0.17902345  0.20361497  0.57915266     0.06900
C1128       C  0.22268541  0.19323868  0.58922914    -0.27300
H1129       H  0.09092498  0.10820902  0.57790621     0.11600
H1130       H  0.11490211  0.03424508  0.57287392     0.12700
H1131       H  0.30443760  0.16401918  0.60303693     0.11800
H1132       H  0.32755894  0.09045469  0.60264962     0.11100
H1133       H  0.31175087  0.02004635  0.57866044     0.16400
H1134       H  0.17672599  0.98284775  0.55908361     0.12400
H1135       H  0.11176542  0.18242378  0.57375059     0.15200
H1136       H  0.24770536  0.21732913  0.58971190     0.15000
C1137       C  0.93214850  0.81044306  0.65767871    -0.17900
C1138       C  0.93996038  0.79025125  0.61592336    -0.20100
C1139       C  0.98280531  0.77462323  0.60228114     0.20600
C1140       C  0.01828452  0.77958739  0.63069658    -0.03000
C1141       C  0.01040729  0.79999231  0.67266881    -0.06000
C1142       C  0.96707101  0.81508693  0.68632992     0.20900
C1143       C  0.04559410  0.80426397  0.70141682     0.19000
C1144       C  0.08856438  0.78895289  0.68763790    -0.17500
C1145       C  0.09659055  0.76921606  0.64563635    -0.19700
C1146       C  0.06169058  0.76441380  0.61703552     0.20500
C1147       C  0.06967650  0.74614335  0.57433945    -0.32800
C1148       C  0.03471864  0.74248987  0.54573661     0.01200
C1149       C  0.99122835  0.75552825  0.56003904    -0.24100
C1150       C  0.95860585  0.83177856  0.72959521    -0.28700
C1151       C  0.99252302  0.83215090  0.76005030     0.06900
C1152       C  0.03658299  0.82117989  0.74455450    -0.27300
H1153       H  0.89864527  0.82178685  0.66787620     0.11600
H1154       H  0.91253168  0.78686240  0.59430704     0.12700
H1155       H  0.11580939  0.79177591  0.70956240     0.11800
H1156       H  0.13002827  0.75766309  0.63553693     0.11100
H1157       H  0.10336120  0.73681861  0.56233048     0.16400
H1158       H  0.96474329  0.75342622  0.53707871     0.12400
H1159       H  0.92435307  0.83977267  0.74063530     0.15200
H1160       H  0.06323446  0.82207584  0.76732608     0.15000
C1161       C  0.97516740  0.14252305  0.38088110    -0.17900
C1162       C  0.96471341  0.15491987  0.42556926    -0.20100
C1163       C  0.97304492  0.19590543  0.44089796     0.20600
C1164       C  0.99436625  0.22392932  0.41158387    -0.03000
C1165       C  0.00545917  0.21129190  0.36673488    -0.06000
C1166       C  0.99460127  0.17076335  0.35093097     0.20900
C1167       C  0.02506605  0.24007628  0.33712760     0.19000
C1168       C  0.03531806  0.28037830  0.35284321    -0.17500
C1169       C  0.02390318  0.29298820  0.39711517    -0.19700
C1170       C  0.00238573  0.26535653  0.42634646     0.20500
C1171       C  0.98645524  0.27927581  0.46917813    -0.32800
C1172       C  0.96293782  0.25230639  0.49800561     0.01200
C1173       C  0.95833015  0.21001822  0.48422369    -0.24100
C1174       C  0.00115799  0.16017376  0.30510025    -0.28700
C1175       C  0.01817154  0.18985131  0.27544486     0.06900
C1176       C  0.03166520  0.22895550  0.29179405    -0.27300
H1177       H  0.96687769  0.11124411  0.36945521     0.11600
H1178       H  0.94858226  0.13292030  0.44772751     0.12700
H1179       H  0.05065412  0.30266396  0.33047539     0.11800
H1180       H  0.03065371  0.32478284  0.40811275     0.11100
H1181       H  0.99002780  0.31198519  0.47877602     0.16400
H1182       H  0.94168791  0.18843274  0.50649394     0.12400
H1183       H  0.99082115  0.13000396  0.29219109     0.15200
H1184       H  0.04497002  0.25160994  0.26858830     0.15000
C1185       C  0.14027187  0.19941363  0.75597650    -0.17900
C1186       C  0.12308180  0.20275118  0.71394234    -0.20100
C1187       C  0.08123825  0.18613220  0.70590512     0.20600
C1188       C  0.06006046  0.16038112  0.73783650    -0.03000
C1189       C  0.07753185  0.15655787  0.77983550    -0.06000
C1190       C  0.11607925  0.17883247  0.78992336     0.20900
C1191       C  0.05265317  0.13586395  0.81371967     0.19000
C1192       C  0.01274716  0.11644193  0.80454610    -0.17500
C1193       C  0.99467771  0.12186915  0.76363691    -0.19700
C1194       C  0.01757407  0.14431565  0.73050293     0.20500
C1195       C  0.99532520  0.15731113  0.69387214    -0.32800
C1196       C  0.00996451  0.19390754  0.67341587     0.01200
C1197       C  0.05617886  0.20106932  0.67148821    -0.24100
C1198       C  0.12608645  0.18451802  0.83464677    -0.28700
C1199       C  0.09805530  0.16764818  0.86821915     0.06900
C1200       C  0.06416448  0.14049787  0.85765404    -0.27300
H1201       H  0.17050058  0.21578011  0.76295885     0.11600
H1202       H  0.14045694  0.22170028  0.68958501     0.12700
H1203       H  0.99328740  0.10075712  0.83040302     0.11800
H1204       H  0.96124716  0.11136596  0.75918373     0.11100
H1205       H  0.96129765  0.14730155  0.69104970     0.16400
H1206       H  0.06888606  0.22633734  0.65165575     0.12400
H1207       H  0.15265617  0.20512464  0.84360725     0.15200
H1208       H  0.04312918  0.12754280  0.88430269     0.15000
C1209       C  0.25659363  0.14366094  0.31149796    -0.17900
C1210       C  0.21151461  0.14000710  0.30267669    -0.20100
C1211       C  0.18742679  0.10609955  0.31934877     0.20600
C1212       C  0.20523612  0.08170887  0.35272677    -0.03000
C1213       C  0.25070875  0.08434532  0.36028884    -0.06000
C1214       C  0.27722612  0.11310859  0.33640631     0.20900
C1215       C  0.27084193  0.05287553  0.38457981     0.19000
C1216       C  0.24426271  0.02465636  0.40813430    -0.17500
C1217       C  0.19877178  0.02222691  0.40131969    -0.19700
C1218       C  0.18035308  0.04804889  0.37009558     0.20500
C1219       C  0.14314120  0.03526624  0.34755348    -0.32800
C1220       C  0.14311257  0.04672974  0.30265866     0.01200
C1221       C  0.15177515  0.08957618  0.29665095    -0.24100
C1222       C  0.32355805  0.10641550  0.33219766    -0.28700
C1223       C  0.34237662  0.07037420  0.34988917     0.06900
C1224       C  0.31691366  0.04605316  0.37924318    -0.27300
H1225       H  0.27632078  0.16699975  0.29439487     0.11600
H1226       H  0.19756676  0.16008759  0.27841770     0.12700
H1227       H  0.25993512  0.00178618  0.42769149     0.11800
H1228       H  0.17999824  0.99665538  0.41540961     0.11100
H1229       H  0.12606993  0.00725979  0.35787096     0.16400
H1230       H  0.14179401  0.10450584  0.26682611     0.12400
H1231       H  0.34415253  0.12614120  0.31099980     0.15200
H1232       H  0.33241553  0.01957501  0.39454776     0.15000
C1233       C  0.34467880  0.84729097  0.96648465    -0.17900
C1234       C  0.38216395  0.87249291  0.96215248    -0.20100
C1235       C  0.39218130  0.89986153  0.99749759     0.20600
C1236       C  0.36802802  0.89814700  0.03921684    -0.03000
C1237       C  0.33078848  0.87263763  0.04366052    -0.06000
C1238       C  0.31767816  0.84872249  0.00642865     0.20900
C1239       C  0.30405519  0.87470235  0.08391544     0.19000
C1240       C  0.31753283  0.89823411  0.12080391    -0.17500
C1241       C  0.35324227  0.92527994  0.11563732    -0.19700
C1242       C  0.37629525  0.92766384  0.07386166     0.20500
C1243       C  0.39974904  0.96373907  0.06262051    -0.32800
C1244       C  0.40806827  0.97053843  0.01694910     0.01200
C1245       C  0.41891923  0.93452504  0.98975647    -0.24100
C1246       C  0.27716870  0.82777825  0.00954679    -0.28700
C1247       C  0.24976219  0.83103491  0.04919867     0.06900
C1248       C  0.26329252  0.85484283  0.08599439    -0.27300
H1249       H  0.33542970  0.82852998  0.93789240     0.11600
H1250       H  0.40050176  0.87356109  0.92996359     0.12700
H1251       H  0.29851111  0.89800832  0.15259913     0.11800
H1252       H  0.36021505  0.94670665  0.14295455     0.11100
H1253       H  0.39833076  0.99036826  0.08606681     0.16400
H1254       H  0.43373201  0.93808318  0.95626080     0.12400
H1255       H  0.26756249  0.80814886  0.98172199     0.15200
H1256       H  0.24225916  0.85705898  0.11676031     0.15000
C1257       C  0.33660765  0.43925779  0.00361855    -0.17900
C1258       C  0.35382692  0.39823645  0.99811422    -0.20100
C1259       C  0.32764595  0.36629798  0.98102901     0.20600
C1260       C  0.28460517  0.37625513  0.96708567    -0.03000
C1261       C  0.26687278  0.41725284  0.97378732    -0.06000
C1262       C  0.29268449  0.44868816  0.99293324     0.20900
C1263       C  0.22233100  0.42608610  0.96392836     0.19000
C1264       C  0.19725743  0.39496190  0.94373451    -0.17500
C1265       C  0.21520639  0.35454526  0.93600446    -0.19700
C1266       C  0.25806678  0.34465496  0.94919543     0.20500
C1267       C  0.27360449  0.30322663  0.94765651    -0.32800
C1268       C  0.31449683  0.29287138  0.96505113     0.01200
C1269       C  0.34241759  0.32427488  0.98006328    -0.24100
C1270       C  0.27320755  0.48824431  0.00363228    -0.28700
C1271       C  0.22737737  0.49575173  0.99867128     0.06900
C1272       C  0.20269948  0.46497875  0.97703601    -0.27300
H1273       H  0.35688100  0.46317059  0.01821820     0.11600
H1274       H  0.38704084  0.39124528  0.00852560     0.12700
H1275       H  0.16325348  0.40149696  0.93533057     0.11800
H1276       H  0.19476390  0.33055617  0.92175861     0.11100
H1277       H  0.25266595  0.27849105  0.93558767     0.16400
H1278       H  0.37423125  0.31578844  0.99297039     0.12400
H1279       H  0.29318586  0.51234400  0.01829208     0.15200
H1280       H  0.16744252  0.47014518  0.97275214     0.15000
C1281       C  0.85748779  0.06303394  0.26726203    -0.17900
C1282       C  0.90340236  0.05526580  0.25918816    -0.20100
C1283       C  0.92153938  0.01474612  0.26294178     0.20600
C1284       C  0.89329963  0.98198215  0.27618977    -0.03000
C1285       C  0.84692620  0.98985548  0.28454789    -0.06000
C1286       C  0.82889651  0.03047828  0.27942775     0.20900
C1287       C  0.81847978  0.95684347  0.29664108     0.19000
C1288       C  0.83686109  0.91659532  0.30170495    -0.17500
C1289       C  0.88277844  0.90880554  0.29336117    -0.19700
C1290       C  0.91117024  0.94115356  0.27998016     0.20500
C1291       C  0.95680008  0.93308162  0.26903484    -0.32800
C1292       C  0.98508288  0.96517776  0.25397354     0.01200
C1293       C  0.96717295  0.00627748  0.25250953    -0.24100
C1294       C  0.78247666  0.03752415  0.28487725    -0.28700
C1295       C  0.75366012  0.00438538  0.29467881     0.06900
C1296       C  0.77206648  0.96434466  0.30177226    -0.27300
H1297       H  0.84422251  0.09441069  0.26324154     0.11600
H1298       H  0.92462073  0.08082970  0.24916894     0.12700
H1299       H  0.81559760  0.89093889  0.31131192     0.11800
H1300       H  0.89597832  0.87728727  0.29666663     0.11100
H1301       H  0.96967624  0.90124529  0.27034217     0.16400
H1302       H  0.98852559  0.03175569  0.24259111     0.12400
H1303       H  0.76855788  0.06833512  0.27910187     0.15200
H1304       H  0.75008974  0.93876232  0.30991026     0.15000
C1305       C  0.76331386  0.85586215  0.71109249    -0.17900
C1306       C  0.71677393  0.85644513  0.71125696    -0.20100
C1307       C  0.69494954  0.88663368  0.68689765     0.20600
C1308       C  0.71923590  0.90962877  0.65452921    -0.03000
C1309       C  0.76590608  0.90737605  0.65273015    -0.06000
C1310       C  0.78715283  0.88521271  0.68609785     0.20900
C1311       C  0.79051148  0.93737247  0.62817824     0.19000
C1312       C  0.76925321  0.96176205  0.59739876    -0.17500
C1313       C  0.72257995  0.96400886  0.59919493    -0.19700
C1314       C  0.69777550  0.94111001  0.63090643     0.20500
C1315       C  0.65356919  0.95279780  0.64384514    -0.32800
C1316       C  0.63189664  0.93378579  0.68029239     0.01200
C1317       C  0.65098987  0.89862899  0.69905411    -0.24100
C1318       C  0.82601981  0.90250196  0.70211962    -0.28700
C1319       C  0.83251271  0.94476348  0.69181352     0.06900
C1320       C  0.83033772  0.95099096  0.64572168    -0.27300
H1321       H  0.77953856  0.83751810  0.73543415     0.11600
H1322       H  0.69805995  0.83751296  0.73486674     0.12700
H1323       H  0.78789406  0.98403437  0.57758465     0.11800
H1324       H  0.70629618  0.98712327  0.57969055     0.11100
H1325       H  0.63703737  0.97817982  0.62771793     0.16400
H1326       H  0.63240303  0.88248493  0.72525069     0.12400
H1327       H  0.83934789  0.89037203  0.73200439     0.15200
H1328       H  0.84690237  0.97772697  0.63136597     0.15000
C1329       C  0.45368623  0.15610526  0.65866603    -0.17900
C1330       C  0.40983778  0.17148432  0.66715283    -0.20100
C1331       C  0.40093401  0.21482951  0.66729056     0.20600
C1332       C  0.43678727  0.24307209  0.66500989    -0.03000
C1333       C  0.48051644  0.22761236  0.65664859    -0.06000
C1334       C  0.48891486  0.18399003  0.65175070     0.20900
C1335       C  0.51578122  0.25569954  0.64940558     0.19000
C1336       C  0.50707944  0.29907450  0.65159033    -0.17500
C1337       C  0.46322516  0.31455115  0.65840457    -0.19700
C1338       C  0.42784328  0.28664195  0.66261420     0.20500
C1339       C  0.38435464  0.29970194  0.65433097    -0.32800
C1340       C  0.35754250  0.26882271  0.63612125     0.01200
C1341       C  0.35866437  0.23013020  0.65713533    -0.24100
C1342       C  0.53318391  0.16965222  0.64263033    -0.28700
C1343       C  0.56721055  0.19745494  0.65343892     0.06900
C1344       C  0.55940842  0.23947673  0.64270311    -0.27300
H1345       H  0.45991926  0.12253244  0.65646099     0.11600
H1346       H  0.38272590  0.14953922  0.66890694     0.12700
H1347       H  0.53402611  0.32090642  0.64689292     0.11800
H1348       H  0.45678804  0.34796650  0.65673937     0.11100
H1349       H  0.37861951  0.33211806  0.64607316     0.16400
H1350       H  0.33230801  0.20831484  0.65198257     0.12400
H1351       H  0.54029537  0.13618620  0.64117723     0.15200
H1352       H  0.58673688  0.26113611  0.64104528     0.15000
C1353       C  0.40353886  0.30013060  0.14414515    -0.17900
C1354       C  0.41380416  0.28450064  0.10056281    -0.20100
C1355       C  0.45690476  0.28873786  0.08059276     0.20600
C1356       C  0.48872602  0.31194770  0.10346380    -0.03000
C1357       C  0.47853543  0.32752035  0.14719720    -0.06000
C1358       C  0.43633244  0.32000929  0.16818208     0.20900
C1359       C  0.51204148  0.34705401  0.17130709     0.19000
C1360       C  0.55378031  0.35466965  0.15011689    -0.17500
C1361       C  0.56367888  0.33972077  0.10652775    -0.19700
C1362       C  0.53197269  0.31687449  0.08402235     0.20500
C1363       C  0.54390307  0.29687747  0.04343241    -0.32800
C1364       C  0.51353658  0.27183592  0.02107228     0.01200
C1365       C  0.46955746  0.26866498  0.03924759    -0.24100
C1366       C  0.42942346  0.32848357  0.21396206    -0.28700
C1367       C  0.46488035  0.34241638  0.23878412     0.06900
C1368       C  0.50486378  0.35451975  0.21720714    -0.27300
H1369       H  0.37076364  0.29468472  0.15986414     0.11600
H1370       H  0.38870476  0.26756503  0.08326696     0.12700
H1371       H  0.57949379  0.37011850  0.16799461     0.11800
H1372       H  0.59687415  0.34414225  0.09125625     0.11100
H1373       H  0.57799188  0.29987192  0.03017089     0.16400
H1374       H  0.44569458  0.25028314  0.02175794     0.12400
H1375       H  0.39840095  0.31929969  0.23105270     0.15200
H1376       H  0.53173372  0.36571869  0.23675264     0.15000
C1377       C  0.26429560  0.45582141  0.11271207    -0.17900
C1378       C  0.21794336  0.45460069  0.11073438    -0.20100
C1379       C  0.19250122  0.43301326  0.14285090     0.20600
C1380       C  0.21371878  0.40530674  0.17096296    -0.03000
C1381       C  0.26026465  0.40514779  0.17156146    -0.06000
C1382       C  0.28463597  0.43480857  0.14636911     0.20900
C1383       C  0.28126832  0.38440846  0.20587697     0.19000
C1384       C  0.25693704  0.35674766  0.23277145    -0.17500
C1385       C  0.21034867  0.35661838  0.23192762    -0.19700
C1386       C  0.18860507  0.38372742  0.20389979     0.20500
C1387       C  0.14315208  0.39355920  0.21151940    -0.32800
C1388       C  0.12364791  0.42521009  0.18736614     0.01200
C1389       C  0.14717918  0.44254328  0.15107125    -0.24100
C1390       C  0.32348800  0.45049815  0.16402853    -0.28700
C1391       C  0.32707816  0.44366103  0.20969294     0.06900
C1392       C  0.32136953  0.40109209  0.21961199    -0.27300
H1393       H  0.28320556  0.47742968  0.09251489     0.11600
H1394       H  0.20153870  0.47411529  0.08774665     0.12700
H1395       H  0.27283165  0.34002207  0.25856082     0.11800
H1396       H  0.19130249  0.33884210  0.25634887     0.11100
H1397       H  0.12349105  0.37850047  0.23773217     0.16400
H1398       H  0.13068535  0.46505779  0.13094041     0.12400
H1399       H  0.33904135  0.47761287  0.14941024     0.15200
H1400       H  0.33614479  0.38869098  0.24862026     0.15000
C1401       C  0.64738239  0.59501815  0.98164630    -0.17900
C1402       C  0.66713161  0.55611496  0.96837498    -0.20100
C1403       C  0.71181509  0.54702902  0.97663529     0.20600
C1404       C  0.73688361  0.57748623  0.99846028    -0.03000
C1405       C  0.71676012  0.61661630  0.01241614    -0.06000
C1406       C  0.67178701  0.62545417  0.00383581     0.20900
C1407       C  0.74199155  0.64728792  0.03377817     0.19000
C1408       C  0.78705755  0.63861973  0.04089708    -0.17500
C1409       C  0.80697400  0.59992317  0.02697925    -0.19700
C1410       C  0.78217898  0.56910048  0.00579819     0.20500
C1411       C  0.80201253  0.53029070  0.99142438    -0.32800
C1412       C  0.77712884  0.49932394  0.97009836     0.01200
C1413       C  0.73184610  0.50813204  0.96315495    -0.24100
C1414       C  0.65263790  0.66515932  0.01580944    -0.28700
C1415       C  0.67787639  0.69613868  0.03617573     0.06900
C1416       C  0.72228125  0.68671370  0.04576790    -0.27300
H1417       H  0.61303289  0.60138573  0.97432189     0.11600
H1418       H  0.64750734  0.53321382  0.95127916     0.12700
H1419       H  0.80706594  0.66196522  0.05682996     0.11800
H1420       H  0.84186118  0.59416120  0.03265070     0.11100
H1421       H  0.83709713  0.52459044  0.99617976     0.16400
H1422       H  0.71187716  0.48461389  0.94747717     0.12400
H1423       H  0.61907682  0.67291053  0.00678547     0.15200
H1424       H  0.74230833  0.71112757  0.05989509     0.15000
loop_ 
_geom_bond_atom_site_label_1 
_geom_bond_atom_site_label_2 
_geom_bond_distance 
_geom_bond_site_symmetry_2 
_ccdc_geom_bond_type 
O1           Ni7   1.939       .  S
O1           C22   1.280       .  A
O2          Ni25   1.942       .  S
O2           C11   1.281       .  A
O3           Ni7   1.886       .  S
O3          Ni25   1.884       .  S
O3          Ni19   1.921       .  S
O3           H26   0.965       .  S
C4           O21   1.276       .  A
C4           O13   1.279       .  A
C4          C400   1.488       .  S
O5          Ni24   1.942       .  S
O5           C11   1.273       .  A
O6          Ni24   1.913       .  S
O6            C8   1.265       .  A
Ni7          O10   1.966       .  S
Ni7          O12   1.890       .  S
C8           O18   1.271       .  A
C8          C409   1.488       .  S
O9          Ni25   1.879       .  S
O9           C15   1.278       .  A
O10          C15   1.285       .  A
C11         C382   1.517       .  S
O12          C14   1.264       .  A
O13         Ni24   1.933       .  S
C14          O20   1.283       .  A
C14         C366   1.481       .  S
C15         C373   1.485       .  S
H16          O17   0.969       .  S
O17         Ni25   1.924       .  S
O17         Ni19   1.936       .  S
O17         Ni24   1.926       .  S
O18         Ni19   1.925       .  S
Ni19         O23   1.932       .  S
Ni19         O21   1.932       .  S
O20         Ni25   1.974       .  S
C22          O23   1.273       .  A
C22         C393   1.499       .  S
O27         Ni33   1.954       .  S
O27          C48   1.282       .  A
O28         Ni51   1.911       .  S
O28          C37   1.274       .  A
O29         Ni33   1.904       .  S
O29         Ni51   1.908       .  S
O29         Ni45   1.914       .  S
O29          H52   0.967       .  S
C30          O47   1.270       .  A
C30          O39   1.287       .  A
C30         C310   1.483       .  S
O31         Ni50   1.945       .  S
O31          C37   1.281       .  A
O32         Ni50   1.886       .  S
O32          C34   1.264       .  A
Ni33         O36   1.939       .  S
Ni33         O38   1.920       .  S
C34          O44   1.301       .  A
C34         C384   1.527       .  S
O35         Ni51   1.924       .  S
O35          C41   1.285       .  A
O36          C41   1.285       .  A
C37         C411   1.486       .  S
O38          C40   1.268       .  A
O39         Ni50   1.943   1_455  S
C40          O46   1.277       .  A
C40          C92   1.502   1_655  S
C41         C420   1.473       .  S
H42          O43   0.964   1_455  S
O43         Ni51   1.930       .  S
O43         Ni45   1.889       .  S
O43         Ni50   1.885       .  S
O44         Ni45   2.024       .  S
Ni45         O49   1.916       .  S
Ni45         O47   1.905   1_655  S
O46         Ni51   1.953       .  S
C48          O49   1.282       .  A
C48         C339   1.495   1_655  S
O53         Ni59   1.957       .  S
O53          C74   1.284       .  A
O54         Ni77   1.948       .  S
O54          C63   1.280   1_554  A
O55         Ni59   1.897       .  S
O55         Ni77   1.911       .  S
O55         Ni71   1.920       .  S
O55          H78   0.966       .  S
C56          O73   1.273   1_556  A
C56          O65   1.284       .  A
C56         C216   1.499       .  S
O57         Ni76   1.937       .  S
O57          C63   1.275       .  A
O58         Ni76   1.901       .  S
O58          C60   1.263       .  A
Ni59         O62   1.929       .  S
Ni59         O64   1.920       .  S
C60          O70   1.279   1_556  A
C60         C357   1.487       .  S
O61         Ni77   1.936       .  S
O61          C67   1.281       .  A
O62          C67   1.282       .  A
C63          C81   1.500       .  S
O64          C66   1.268       .  A
O65         Ni76   1.957   1_455  S
C66          O72   1.282       .  A
C66          C90   1.478   1_655  S
C67         C418   1.479       .  S
H68          O69   0.966   1_455  S
O69         Ni77   1.950       .  S
O69         Ni71   1.890       .  S
O69         Ni76   1.918   1_554  S
O70         Ni71   1.938       .  S
Ni71         O75   1.915       .  S
Ni71         O73   1.915   1_655  S
O72         Ni77   1.942       .  S
C74          O75   1.270       .  A
C74         C223   1.504       .  S
C79        C1412   1.498       .  S
C79          C80   1.412       .  A
C79          C84   1.411       .  A
C80          C81   1.403       .  A
C80          H85   1.083   1_556  S
C81          C82   1.420       .  A
C82          C83   1.424       .  A
C82          H86   1.081       .  S
C83         C104   1.510       .  S
C83          C84   1.404       .  A
C84          H87   1.082       .  S
C88        C1388   1.449       .  S
C88          C89   1.386       .  A
C88          C93   1.413       .  A
C89          C90   1.377       .  A
C89          H94   1.086       .  S
C90          C91   1.420   1_455  A
C91          C92   1.422   1_655  A
C91          H95   1.074       .  S
C92          C93   1.406       .  A
C93          H96   1.083       .  S
O97        Ni103   1.943       .  S
O97         C118   1.278       .  A
O98        Ni121   1.926       .  S
O98         C107   1.281       .  A
O99        Ni103   1.892       .  S
O99        Ni121   1.920       .  S
O99        Ni115   1.897       .  S
O99         H122   0.967       .  S
C100        O117   1.267       .  A
C100        O109   1.287       .  A
C100        C402   1.483       .  S
O101       Ni120   1.943       .  S
O101        C107   1.278       .  A
O102       Ni120   1.925       .  S
O102        C104   1.269       .  A
Ni103       O106   1.906       .  S
Ni103       O108   1.916       .  S
C104        O114   1.280       .  A
O105       Ni121   1.939       .  S
O105        C111   1.283       .  A
O106        C111   1.284       .  A
C107        C355   1.495       .  S
O108        C110   1.267       .  A
O109       Ni120   1.953       .  S
C110        O116   1.272       .  A
C110        C162   1.477       .  S
C111        C151   1.476       .  S
H112        O113   0.965       .  S
O113       Ni121   1.915       .  S
O113       Ni115   1.891       .  S
O113       Ni120   1.897       .  S
O114       Ni115   1.958       .  S
Ni115       O119   1.915       .  S
Ni115       O117   1.894       .  S
O116       Ni121   1.928       .  S
C118        O119   1.266       .  A
C118        C391   1.487       .  S
O123       Ni129   1.959       .  S
O123        C144   1.283   1_545  A
O124       Ni147   1.914       .  S
O124        C133   1.277       .  A
O125       Ni129   1.885       .  S
O125       Ni147   1.890       .  S
O125       Ni141   1.919       .  S
O125        H148   0.967       .  S
C126        O143   1.274       .  A
C126        O135   1.280       .  A
C126        C348   1.506   1_545  S
O127       Ni146   1.930       .  S
O127        C133   1.270       .  A
O128       Ni146   1.894       .  S
O128        C130   1.262       .  A
Ni129       O132   1.962       .  S
Ni129       O134   1.881       .  S
C130        O140   1.275       .  A
C130        C196   1.473       .  S
O131       Ni147   1.916       .  S
O131        C137   1.277       .  A
O132        C137   1.285       .  A
C133        C189   1.485       .  S
O134        C136   1.268       .  A
O135       Ni146   1.938       .  S
C136        O142   1.288       .  A
C136        C160   1.484       .  S
C137        C153   1.492       .  S
H138        O139   0.967       .  S
O139       Ni147   1.941       .  S
O139       Ni141   1.903       .  S
O139       Ni146   1.927       .  S
O140       Ni141   1.919       .  S
Ni141       O145   1.894   1_545  S
Ni141       O143   1.937       .  S
O142       Ni147   1.983       .  S
C144        O145   1.269       .  A
C144        C169   1.495       .  S
C149       C1364   1.477   1_556  S
C149        C150   1.389       .  A
C149        C154   1.408       .  A
C150        C151   1.384       .  A
C150        H155   1.085       .  S
C151        C152   1.411       .  A
C152        C153   1.421       .  A
C152        H156   1.083       .  S
C153        C154   1.414       .  A
C154        H157   1.083       .  S
C158       C1343   1.500       .  S
C158        C159   1.407       .  A
C158        C163   1.408       .  A
C159        C160   1.392       .  A
C159        H164   1.083       .  S
C160        C161   1.412       .  A
C161        C162   1.421       .  A
C161        H165   1.081       .  S
C162        C163   1.398       .  A
C163        H166   1.083       .  S
C167       C1316   1.451       .  S
C167        C168   1.401       .  A
C167        C172   1.375       .  A
C168        C169   1.409       .  A
C168        H173   1.084       .  S
C169        C170   1.422       .  A
C170        C171   1.418       .  A
C170        H174   1.082       .  S
C171        C263   1.473       .  S
C171        C172   1.388       .  A
C172        H175   1.086       .  S
C176       C1292   1.498   1_455  S
C176        C177   1.417       .  A
C176        C181   1.417       .  A
C177        C178   1.402       .  A
C177        H182   1.082       .  S
C178        C289   1.528       .  S
C178        C179   1.439       .  A
C179        C180   1.430       .  A
C179        H183   1.082       .  S
C180        C244   1.522       .  S
C180        C181   1.399       .  A
C181        H184   1.082   1_565  S
C185       C1268   1.459       .  S
C185        C186   1.404   1_556  A
C185        C190   1.395       .  A
C186        C187   1.402   1_554  A
C186        H191   1.084       .  S
C187        C233   1.506   1_556  S
C187        C188   1.421       .  A
C188        C189   1.424       .  A
C188        H192   1.083       .  S
C189        C190   1.394       .  A
C190        H193   1.084       .  S
C194       C1244   1.495   1_556  S
C194        C195   1.389   1_565  A
C194        C199   1.418   1_566  A
C195        C196   1.397       .  A
C195        H200   1.084       .  S
C196        C197   1.417       .  A
C197        C198   1.407       .  A
C197        H201   1.083       .  S
C198        C251   1.499   1_556  S
C198        C199   1.415   1_556  A
C199        H202   1.082   1_545  S
C203       C1220   1.520       .  S
C203        C204   1.405       .  A
C203        C208   1.411   1_545  A
C204        C205   1.409       .  A
C204        H209   1.081       .  S
C205        C243   1.456       .  S
C205        C206   1.392   1_545  A
C206        C207   1.388       .  A
C206        H210   1.081       .  S
C207        C292   1.469       .  S
C207        C208   1.412       .  A
C208        H211   1.079       .  S
C212       C1199   1.452       .  S
C212        C213   1.391       .  A
C212        C217   1.410       .  A
C213        C214   1.389       .  A
C213        H218   1.085       .  S
C214        C237   1.474   1_556  S
C214        C215   1.420   1_556  A
C215        C216   1.410   1_554  A
C215        H219   1.082       .  S
C216        C217   1.402       .  A
C217        H220   1.084       .  S
C221       C1175   1.471       .  S
C221        C222   1.399   1_455  A
C221        C226   1.397       .  A
C222        C223   1.401       .  A
C222        H227   1.085       .  S
C223        C224   1.426   1_655  A
C224        C225   1.427       .  A
C224        H228   1.081       .  S
C225        C240   1.493       .  S
C225        C226   1.404       .  A
C226        H229   1.085       .  S
O230       Ni236   1.942       .  S
O230        C251   1.276   1_565  A
O231       Ni254   1.949       .  S
O231        C240   1.285       .  A
O232       Ni236   1.959   1_545  S
O232       Ni254   1.914       .  S
O232       Ni248   1.938       .  S
O232        H255   0.966       .  S
C233        O250   1.275       .  A
C233        O242   1.288       .  A
O234       Ni253   1.939       .  S
O234        C240   1.281       .  A
O235       Ni253   1.869       .  S
O235        C237   1.262       .  A
Ni236       O239   1.949       .  S
Ni236       O241   1.915       .  S
C237        O247   1.288       .  A
O238       Ni254   1.986       .  S
O238        C244   1.296   1_545  A
O239        C244   1.288       .  A
O241        C243   1.260   1_565  A
O242       Ni253   1.959       .  S
C243        O249   1.249       .  A
H245        O246   0.967       .  S
O246       Ni254   1.927       .  S
O246       Ni248   1.880       .  S
O246       Ni253   1.873       .  S
O247       Ni248   1.959       .  S
Ni248       O252   1.908   1_554  S
Ni248       O250   1.923       .  S
O249       Ni254   1.896       .  S
C251        O252   1.274   1_554  A
O256       Ni262   1.944       .  S
O256        C277   1.277       .  A
O257       Ni280   1.932       .  S
O257        C266   1.272       .  A
O258       Ni262   1.908       .  S
O258       Ni280   1.896       .  S
O258       Ni274   1.916       .  S
O258        H281   0.966       .  S
C259        O276   1.278       .  A
C259        O268   1.293       .  A
C259        C364   1.503       .  S
O260       Ni279   1.968       .  S
O260        C266   1.283       .  A
O261       Ni279   1.905       .  S
O261        C263   1.261       .  A
Ni262       O265   1.931       .  S
Ni262       O267   1.911       .  S
C263        O273   1.272       .  A
O264       Ni280   1.908       .  S
O264        C270   1.280       .  A
O265        C270   1.282       .  A
C266        C346   1.502       .  S
O267        C269   1.267       .  A
O268       Ni279   1.966       .  S
C269        O275   1.277       .  A
C269        C328   1.490       .  S
C270        C319   1.458       .  S
H271        O272   0.965       .  S
O272       Ni280   1.925       .  S
O272       Ni274   1.906       .  S
O272       Ni279   1.920       .  S
O273       Ni274   1.922       .  S
Ni274       O278   1.911       .  S
Ni274       O276   1.933       .  S
O275       Ni280   1.946       .  S
C277        O278   1.269       .  A
C277        C375   1.494       .  S
O282       Ni288   1.914       .  S
O282        C303   1.274       .  A
O283       Ni306   1.871       .  S
O283        C292   1.263       .  A
O284       Ni288   1.866       .  S
O284       Ni306   1.907       .  S
O284       Ni300   1.900       .  S
O284        H307   0.966       .  S
C285        O302   1.268       .  A
C285        O294   1.294       .  A
C285        C337   1.488       .  S
O286       Ni305   1.948       .  S
O286        C292   1.283       .  A
O287       Ni305   1.909       .  S
O287        C289   1.265       .  A
Ni288       O291   1.900       .  S
Ni288       O293   1.930       .  S
C289        O299   1.298       .  A
O290       Ni306   1.963       .  S
O290        C296   1.289       .  A
O291        C296   1.275       .  A
O293        C295   1.271       .  A
O294       Ni305   1.960       .  S
C295        O301   1.269       .  A
C295        C330   1.473       .  S
C296        C321   1.481       .  S
H297        O298   0.965       .  S
O298       Ni306   1.939       .  S
O298       Ni300   1.879       .  S
O298       Ni305   1.882       .  S
O299       Ni300   2.013       .  S
Ni300       O304   1.915       .  S
Ni300       O302   1.903       .  S
O301       Ni306   1.921       .  S
C303        O304   1.277       .  A
C303        C312   1.478       .  S
C308       C1148   1.455       .  S
C308        C309   1.391       .  A
C308        C313   1.389       .  A
C309        C310   1.403       .  A
C309        H314   1.084       .  S
C310        C311   1.425       .  A
C311        C312   1.414       .  A
C311        H315   1.082       .  S
C312        C313   1.394       .  A
C313        H316   1.086       .  S
C317       C1124   1.476       .  S
C317        C318   1.392       .  A
C317        C322   1.402       .  A
C318        C319   1.393       .  A
C318        H323   1.085       .  S
C319        C320   1.407       .  A
C320        C321   1.406       .  A
C320        H324   1.080       .  S
C321        C322   1.407       .  A
C322        H325   1.083       .  S
C326       C1100   1.457       .  S
C326        C327   1.408       .  A
C326        C331   1.397       .  A
C327        C328   1.406       .  A
C327        H332   1.083       .  S
C328        C329   1.420       .  A
C329        C330   1.407       .  A
C329        H333   1.075       .  S
C330        C331   1.376       .  A
C331        H334   1.087       .  S
C335       C1079   1.470       .  S
C335        C336   1.388       .  A
C335        C340   1.404       .  A
C336        C337   1.385       .  A
C336        H341   1.083       .  S
C337        C338   1.431       .  A
C338        C339   1.427       .  A
C338        H342   1.082       .  S
C339        C340   1.400       .  A
C340        H343   1.084   1_455  S
C344       C1055   1.498       .  S
C344        C345   1.413       .  A
C344        C349   1.408       .  A
C345        C346   1.413       .  A
C345        H350   1.083       .  S
C346        C347   1.418       .  A
C347        C348   1.420       .  A
C347        H351   1.080       .  S
C348        C349   1.406       .  A
C349        H352   1.084   1_565  S
C353       C1028   1.496       .  S
C353        C354   1.408   1_554  A
C353        C358   1.399       .  A
C354        C355   1.398       .  A
C354        H359   1.080       .  S
C355        C356   1.415       .  A
C356        C357   1.420       .  A
C356        H360   1.083       .  S
C357        C358   1.402   1_556  A
C358        H361   1.079       .  S
C362       C1004   1.465       .  S
C362        C363   1.405       .  A
C362        C367   1.397       .  A
C363        C364   1.394       .  A
C363        H368   1.085       .  S
C364        C365   1.420       .  A
C365        C366   1.427       .  A
C365        H369   1.079       .  S
C366        C367   1.397       .  A
C367        H370   1.084       .  S
C371        C980   1.474       .  S
C371        C372   1.382       .  A
C371        C376   1.404       .  A
C372        C373   1.398       .  A
C372        H377   1.085       .  S
C373        C374   1.415       .  A
C374        C375   1.419       .  A
C374        H378   1.083       .  S
C375        C376   1.414       .  A
C376        H379   1.083       .  S
C380        C959   1.501       .  S
C380        C381   1.418       .  A
C380        C385   1.428       .  A
C381        C382   1.395       .  A
C381        H386   1.083       .  S
C382        C383   1.416       .  A
C383        C384   1.431       .  A
C383        H387   1.081       .  S
C384        C385   1.413       .  A
C385        H388   1.082       .  S
C389        C932   1.477       .  S
C389        C390   1.391       .  A
C389        C394   1.398       .  A
C390        C391   1.396       .  A
C390        H395   1.085       .  S
C391        C392   1.425       .  A
C392        C393   1.426       .  A
C392        H396   1.083       .  S
C393        C394   1.405       .  A
C394        H397   1.084       .  S
C398        C911   1.500       .  S
C398        C399   1.411       .  A
C398        C403   1.398       .  A
C399        C400   1.414       .  A
C399        H404   1.082       .  S
C400        C401   1.423       .  A
C401        C402   1.420       .  A
C401        H405   1.083       .  S
C402        C403   1.378       .  A
C403        H406   1.075       .  S
C407        C887   1.490       .  S
C407        C408   1.410       .  A
C407        C412   1.404       .  A
C408        C409   1.399       .  A
C408        H413   1.082       .  S
C409        C410   1.408       .  A
C410        C411   1.411       .  A
C410        H414   1.083       .  S
C411        C412   1.408       .  A
C412        H415   1.083       .  S
C416        C860   1.455       .  S
C416        C417   1.398       .  A
C416        C421   1.396       .  A
C417        C418   1.402       .  A
C417        H422   1.084       .  S
C418        C419   1.417       .  A
C419        C420   1.411       .  A
C419        H423   1.082       .  S
C420        C421   1.385       .  A
C421        H424   1.085       .  S
O425       Ni431   1.930       .  S
O425        C446   1.274       .  A
O426       Ni449   1.882       .  S
O426        C435   1.268   1_455  A
O427       Ni431   1.882       .  S
O427       Ni449   1.874       .  S
O427       Ni443   1.924       .  S
O427        H450   0.965       .  S
C428        O445   1.294   1_655  A
C428        O437   1.293       .  A
C428        C725   1.517       .  S
O429       Ni448   1.988       .  S
O429        C435   1.294       .  A
O430       Ni448   1.922       .  S
O430        C432   1.266       .  A
Ni431       O434   1.928       .  S
Ni431       O436   1.888       .  S
C432        O442   1.266   1_655  A
C432        C734   1.489       .  S
O433       Ni449   1.932       .  S
O433        C439   1.274       .  A
O434        C439   1.281       .  A
C435        C698   1.495       .  S
O436        C438   1.262       .  A
O437       Ni448   1.975       .  S
C438        O444   1.281       .  A
C438        C560   1.472       .  S
C439        C709   1.490       .  S
H440        O441   0.966       .  S
O441       Ni449   1.908       .  S
O441       Ni443   1.866       .  S
O441       Ni448   1.884   1_455  S
O442       Ni443   1.908       .  S
Ni443       O447   1.901       .  S
Ni443       O445   1.950       .  S
O444       Ni449   1.935       .  S
C446        O447   1.274       .  A
C446        C817   1.465       .  S
O451       Ni457   1.986       .  S
O451        C472   1.292       .  A
O452       Ni475   1.898       .  S
O452        C461   1.268       .  A
O453       Ni457   1.903       .  S
O453       Ni475   1.882       .  S
O453       Ni469   1.931       .  S
O453        H476   0.967       .  S
C454        O471   1.278       .  A
C454        O463   1.279       .  A
C454        C752   1.493       .  S
O455       Ni474   1.953       .  S
O455        C461   1.279       .  A
O456       Ni474   1.902       .  S
O456        C458   1.268       .  A
Ni457       O460   1.997       .  S
Ni457       O462   1.889       .  S
C458        O468   1.265       .  A
C458        C797   1.459       .  S
O459       Ni475   1.938       .  S
O459        C465   1.277       .  A
O460        C465   1.299       .  A
C461        C806   1.485       .  S
O462        C464   1.259       .  A
O463       Ni474   1.958       .  S
C464        O470   1.290       .  A
C464        C772   1.491       .  S
C465        C479   1.538       .  S
H466        O467   0.966       .  S
O467       Ni475   1.937       .  S
O467       Ni469   1.927       .  S
O467       Ni474   1.932       .  S
O468       Ni469   1.921       .  S
Ni469       O473   1.893       .  S
Ni469       O471   1.925       .  S
O470       Ni475   1.970       .  S
C472        O473   1.266       .  A
C472        C716   1.489       .  S
C477       C1340   1.495       .  S
C477        C478   1.429       .  A
C477        C482   1.402       .  A
C478        C479   1.398       .  A
C478        H483   1.075       .  S
C479        C480   1.425       .  A
C480        C481   1.432       .  A
C480        H484   1.071       .  S
C481        C499   1.496       .  S
C481        C482   1.396       .  A
C482        H485   1.084       .  S
O486       Ni492   1.941       .  S
O486        C507   1.281       .  A
O487       Ni510   1.915       .  S
O487        C496   1.279       .  A
O488       Ni492   1.887       .  S
O488       Ni510   1.875       .  S
O488       Ni504   1.919       .  S
O488        H511   0.966       .  S
C489        O506   1.285       .  A
C489        O498   1.282       .  A
C489        C514   1.481       .  S
O490       Ni509   1.920       .  S
O490        C496   1.277       .  A
O491       Ni509   1.939       .  S
O491        C493   1.265       .  A
Ni492       O495   1.960       .  S
Ni492       O497   1.874       .  S
C493        O503   1.266       .  A
C493        C779   1.486       .  S
O494       Ni510   1.892       .  S
O494        C500   1.271       .  A
O495        C500   1.289       .  A
C496        C558   1.496       .  S
O497        C499   1.260       .  A
O498       Ni509   1.927       .  S
C499        O505   1.299       .  A
C500        C815   1.487       .  S
H501        O502   0.968       .  S
O502       Ni510   1.925       .  S
O502       Ni504   1.900       .  S
O502       Ni509   1.934       .  S
O503       Ni504   1.923       .  S
Ni504       O508   1.908       .  S
Ni504       O506   1.953       .  S
O505       Ni510   2.001       .  S
C507        O508   1.270       .  A
C507        C808   1.466       .  S
C512        C863   1.475       .  S
C512        C513   1.400       .  A
C512        C517   1.407       .  A
C513        C514   1.393       .  A
C513        H518   1.083       .  S
C514        C515   1.424       .  A
C515        C516   1.420       .  A
C515        H519   1.082       .  S
C516        C544   1.494       .  S
C516        C517   1.391       .  A
C517        H520   1.083       .  S
C521       C1007   1.482       .  S
C521        C522   1.399       .  A
C521        C526   1.392       .  A
C522        C523   1.409       .  A
C522        H527   1.083       .  S
C523        C551   1.502       .  S
C523        C524   1.427       .  A
C524        C525   1.426       .  A
C524        H528   1.081       .  S
C525        C586   1.487       .  S
C525        C526   1.390       .  A
C526        H529   1.083       .  S
O530       Ni536   1.937       .  S
O530        C551   1.283       .  A
O531       Ni554   1.856       .  S
O531        C540   1.247       .  A
O532       Ni536   1.847       .  S
O532       Ni554   1.905       .  S
O532       Ni548   1.918       .  S
O532        H555   0.965       .  S
C533        O550   1.293       .  A
C533        O542   1.292       .  A
C533        C763   1.472       .  S
O534       Ni553   1.981       .  S
O534        C540   1.280       .  A
O535       Ni553   1.926       .  S
O535        C537   1.259       .  A
Ni536       O539   1.947       .  S
Ni536       O541   1.904       .  S
C537        O547   1.271       .  A
C537        C788   1.501       .  S
O538       Ni554   1.938       .  S
O538        C544   1.282       .  A
O539        C544   1.288       .  A
C540        C781   1.488       .  S
O541        C543   1.271       .  A
O542       Ni553   1.939       .  S
C543        O549   1.285       .  A
C543        C743   1.517       .  S
H545        O546   0.966       .  S
O546       Ni554   1.948       .  S
O546       Ni548   1.902       .  S
O546       Ni553   1.955       .  S
O547       Ni548   1.947       .  S
Ni548       O552   1.956       .  S
Ni548       O550   1.941       .  S
O549       Ni554   1.983       .  S
C551        O552   1.285       .  A
C556       C1103   1.502       .  S
C556        C557   1.412       .  A
C556        C561   1.398       .  A
C557        C558   1.404       .  A
C557        H562   1.080       .  S
C558        C559   1.400       .  A
C559        C560   1.423       .  A
C559        H563   1.083       .  S
C560        C561   1.400       .  A
C561        H564   1.083       .  S
O565       Ni571   1.952       .  S
O565        C586   1.277       .  A
O566       Ni589   1.948       .  S
O566        C575   1.284       .  A
O567       Ni571   1.950       .  S
O567       Ni589   1.921       .  S
O567       Ni583   1.942       .  S
O567        H590   0.966       .  S
C568        O585   1.288       .  A
C568        O577   1.280       .  A
C568        C595   1.494       .  S
O569       Ni588   1.936       .  S
O569        C575   1.280       .  A
O570       Ni588   1.918       .  S
O570        C572   1.267       .  A
Ni571       O574   1.958       .  S
Ni571       O576   1.927       .  S
C572        O582   1.276       .  A
C572        C833   1.476       .  S
O573       Ni589   1.936       .  S
O573        C579   1.283       .  A
O574        C579   1.287       .  A
C575        C754   1.513       .  S
O576        C578   1.262       .  A
O577       Ni588   1.933       .  S
C578        O584   1.275       .  A
C578        C745   1.512       .  S
C579        C799   1.506   1_565  S
H580        O581   0.960       .  S
O581       Ni589   1.933       .  S
O581       Ni583   1.896       .  S
O581       Ni588   1.892       .  S
O582       Ni583   1.934       .  S
Ni583       O587   1.923       .  S
Ni583       O585   1.964       .  S
O584       Ni589   1.928       .  S
C586        O587   1.274       .  A
C591       C1415   1.481       .  S
C591        C592   1.397   1_554  A
C591        C596   1.411       .  A
C592        C593   1.399       .  A
C592        H597   1.085       .  S
C593        C649   1.495       .  S
C593        C594   1.415   1_556  A
C594        C595   1.418       .  A
C594        H598   1.082       .  S
C595        C596   1.415       .  A
C596        H599   1.083       .  S
O600       Ni606   1.971       .  S
O600        C621   1.282       .  A
O601       Ni624   1.909       .  S
O601        C610   1.269       .  A
O602       Ni606   1.943       .  S
O602       Ni624   1.897       .  S
O602       Ni618   1.954       .  S
O602        H625   0.961       .  S
C603        O620   1.278       .  A
C603        O612   1.279       .  A
C603        C844   1.493       .  S
O604       Ni623   1.914       .  S
O604        C610   1.267       .  A
O605       Ni623   1.891       .  S
O605        C607   1.248       .  A
Ni606       O609   1.980       .  S
Ni606       O611   1.911       .  S
C607        O617   1.275       .  A
C607        C628   1.511       .  S
O608       Ni624   1.924       .  S
O608        C614   1.273       .  A
O609        C614   1.293       .  A
C610        C718   1.481       .  S
O611        C613   1.263       .  A
O612       Ni623   1.954       .  S
C613        O619   1.287       .  A
C613        C727   1.514       .  S
C614        C770   1.510       .  S
H615        O616   0.967       .  S
O616       Ni624   1.932       .  S
O616       Ni618   1.969       .  S
O616       Ni623   1.900       .  S
O617       Ni618   1.987       .  S
Ni618       O622   1.874       .  S
Ni618       O620   1.933       .  S
O619       Ni624   1.983       .  S
C621        O622   1.264       .  A
C621        C736   1.498       .  S
C626       C1319   1.530       .  S
C626        C627   1.406   1_565  A
C626        C631   1.399       .  A
C627        C628   1.414       .  A
C627        H632   1.077       .  S
C628        C629   1.415       .  A
C629        C630   1.424   1_545  A
C629        H633   1.082       .  S
C630        C642   1.490       .  S
C630        C631   1.412       .  A
C631        H634   1.079       .  S
O635       Ni641   1.941       .  S
O635        C656   1.279       .  A
O636       Ni659   1.894   1_554  S
O636        C645   1.269   1_554  A
O637       Ni641   1.903       .  S
O637       Ni659   1.880       .  S
O637       Ni653   1.927       .  S
O637        H660   0.966       .  S
C638        O655   1.281       .  A
C638        O647   1.290   1_565  A
C638        C842   1.502   1_565  S
O639       Ni658   1.978   1_565  S
O639        C645   1.290       .  A
O640       Ni658   1.935       .  S
O640        C642   1.267   1_545  A
Ni641       O644   1.935       .  S
Ni641       O646   1.904       .  S
C642        O652   1.268       .  A
O643       Ni659   1.933       .  S
O643        C649   1.278       .  A
O644        C649   1.284       .  A
C645        C835   1.500   1_556  S
O646        C648   1.264       .  A
O647       Ni658   1.968       .  S
C648        O654   1.278       .  A
C648        C826   1.481       .  S
H650        O651   0.965       .  S
O651       Ni659   1.928       .  S
O651       Ni653   1.903       .  S
O651       Ni658   1.934   1_565  S
O652       Ni653   1.919       .  S
Ni653       O657   1.920       .  S
Ni653       O655   1.938       .  S
O654       Ni659   1.928       .  S
C656        O657   1.272       .  A
C656        C689   1.480       .  S
O661       Ni667   1.895       .  S
O661        C682   1.265       .  A
O662       Ni685   1.904       .  S
O662        C671   1.257   1_455  A
O663       Ni667   1.894       .  S
O663       Ni685   1.897       .  S
O663       Ni679   1.947       .  S
O663        H686   0.966       .  S
C664        O681   1.297   1_656  A
C664        O673   1.283       .  A
C664        C824   1.516   1_556  S
O665       Ni684   1.950       .  S
O665        C671   1.272       .  A
O666       Ni684   1.900       .  S
O666        C668   1.269       .  A
Ni667       O670   1.933       .  S
Ni667       O672   1.904       .  S
C668        O678   1.280   1_655  A
C668        C691   1.471       .  S
O669       Ni685   1.931       .  S
O669        C675   1.269       .  A
O670        C675   1.277       .  A
C671        C700   1.474   1_655  S
O672        C674   1.269       .  A
O673       Ni684   1.939       .  S
C674        O680   1.287       .  A
C674        C790   1.488   1_556  S
C675        C707   1.484       .  S
H676        O677   0.968       .  S
O677       Ni685   1.947       .  S
O677       Ni679   1.899       .  S
O677       Ni684   1.924   1_455  S
O678       Ni679   1.950       .  S
Ni679       O683   1.947       .  S
Ni679       O681   1.962   1_556  S
O680       Ni685   1.970       .  S
C682        O683   1.289       .  A
C682        C761   1.480   1_556  S
C687       C1151   1.482       .  S
C687        C688   1.410       .  A
C687        C692   1.409       .  A
C688        C689   1.399       .  A
C688        H693   1.084       .  S
C689        C690   1.405       .  A
C690        C691   1.411       .  A
C690        H694   1.080       .  S
C691        C692   1.387       .  A
C692        H695   1.082   1_655  S
C696        C908   1.513       .  S
C696        C697   1.419       .  A
C696        C701   1.392       .  A
C697        C698   1.410   1_455  A
C697        H702   1.082       .  S
C698        C699   1.417       .  A
C699        C700   1.416   1_655  A
C699        H703   1.083       .  S
C700        C701   1.396       .  A
C701        H704   1.085       .  S
C705        C935   1.479       .  S
C705        C706   1.402       .  A
C705        C710   1.400       .  A
C706        C707   1.399       .  A
C706        H711   1.084       .  S
C707        C708   1.416       .  A
C708        C709   1.417       .  A
C708        H712   1.082       .  S
C709        C710   1.400       .  A
C710        H713   1.083       .  S
C714        C956   1.494   1_545  S
C714        C715   1.411       .  A
C714        C719   1.401       .  A
C715        C716   1.412       .  A
C715        H720   1.084       .  S
C716        C717   1.414       .  A
C717        C718   1.414       .  A
C717        H721   1.082       .  S
C718        C719   1.400       .  A
C719        H722   1.084       .  S
C723       C1172   1.493       .  S
C723        C724   1.409       .  A
C723        C728   1.410       .  A
C724        C725   1.403       .  A
C724        H729   1.083       .  S
C725        C726   1.427       .  A
C726        C727   1.434       .  A
C726        H730   1.082       .  S
C727        C728   1.400       .  A
C728        H731   1.082       .  S
C732       C1196   1.495   1_655  S
C732        C733   1.399       .  A
C732        C737   1.391       .  A
C733        C734   1.406       .  A
C733        H738   1.082   1_655  S
C734        C735   1.423       .  A
C735        C736   1.415       .  A
C735        H739   1.080       .  S
C736        C737   1.412       .  A
C737        H740   1.082       .  S
C741        C983   1.486       .  S
C741        C742   1.385       .  A
C741        C746   1.390       .  A
C742        C743   1.419       .  A
C742        H747   1.082       .  S
C743        C744   1.436       .  A
C744        C745   1.437       .  A
C744        H748   1.082       .  S
C745        C746   1.401       .  A
C746        H749   1.083       .  S
C750       C1295   1.490       .  S
C750        C751   1.405       .  A
C750        C755   1.405   1_545  A
C751        C752   1.405       .  A
C751        H756   1.084       .  S
C752        C753   1.425       .  A
C753        C754   1.417   1_545  A
C753        H757   1.078       .  S
C754        C755   1.412       .  A
C755        H758   1.083       .  S
C759       C1247   1.465       .  S
C759        C760   1.408       .  A
C759        C764   1.393       .  A
C760        C761   1.405       .  A
C760        H765   1.084   1_554  S
C761        C762   1.422       .  A
C762        C763   1.412       .  A
C762        H766   1.078       .  S
C763        C764   1.376       .  A
C764        H767   1.086       .  S
C768        C884   1.460       .  S
C768        C769   1.411       .  A
C768        C773   1.388       .  A
C769        C770   1.410       .  A
C769        H774   1.084       .  S
C770        C771   1.428       .  A
C771        C772   1.429       .  A
C771        H775   1.083       .  S
C772        C773   1.383       .  A
C773        H776   1.086       .  S
C777       C1391   1.527       .  S
C777        C778   1.401       .  A
C777        C782   1.413       .  A
C778        C779   1.402       .  A
C778        H783   1.079       .  S
C779        C780   1.416       .  A
C780        C781   1.415       .  A
C780        H784   1.082       .  S
C781        C782   1.417       .  A
C782        H785   1.083       .  S
C786       C1271   1.488   1_554  S
C786        C787   1.408       .  A
C786        C791   1.403   1_554  A
C787        C788   1.397       .  A
C787        H792   1.080       .  S
C788        C789   1.424       .  A
C789        C790   1.420       .  A
C789        H793   1.077       .  S
C790        C791   1.400   1_554  A
C791        H794   1.085       .  S
C795       C1223   1.461       .  S
C795        C796   1.385       .  A
C795        C800   1.415       .  A
C796        C797   1.382       .  A
C796        H801   1.086       .  S
C797        C798   1.413       .  A
C798        C799   1.415       .  A
C798        H802   1.078       .  S
C799        C800   1.411       .  A
C800        H803   1.083   1_545  S
C804       C1367   1.460       .  S
C804        C805   1.407       .  A
C804        C809   1.390       .  A
C805        C806   1.401       .  A
C805        H810   1.084       .  S
C806        C807   1.412       .  A
C807        C808   1.410       .  A
C807        H811   1.073       .  S
C808        C809   1.388       .  A
C809        H812   1.086       .  S
C813       C1127   1.454       .  S
C813        C814   1.404       .  A
C813        C818   1.388       .  A
C814        C815   1.402       .  A
C814        H819   1.084       .  S
C815        C816   1.416       .  A
C816        C817   1.408       .  A
C816        H820   1.084       .  S
C817        C818   1.385       .  A
C818        H821   1.077       .  S
C822       C1076   1.489       .  S
C822        C823   1.426       .  A
C822        C827   1.385       .  A
C823        C824   1.412       .  A
C823        H828   1.082       .  S
C824        C825   1.423   1_554  A
C825        C826   1.418       .  A
C825        H829   1.083       .  S
C826        C827   1.392   1_556  A
C827        H830   1.084       .  S
C831       C1031   1.457       .  S
C831        C832   1.392       .  A
C831        C836   1.408       .  A
C832        C833   1.393   1_545  A
C832        H837   1.085       .  S
C833        C834   1.418       .  A
C834        C835   1.418       .  A
C834        H838   1.082       .  S
C835        C836   1.400   1_565  A
C836        H839   1.084       .  S
C840       C1052   1.512       .  S
C840        C841   1.420   1_545  A
C840        C845   1.412       .  A
C841        C842   1.415   1_565  A
C841        H846   1.082       .  S
C842        C843   1.416       .  A
C843        C844   1.413       .  A
C843        H847   1.082       .  S
C844        C845   1.401       .  A
C845        H848   1.082       .  S
C849        C850   1.400       .  A
C849        C854   1.405       .  A
C849        H865   1.084       .  S
C850        C851   1.404       .  A
C850        H866   1.083       .  S
C851        C861   1.405       .  A
C851        C852   1.414       .  A
C852        C858   1.409       .  A
C852        C853   1.401       .  A
C853        C855   1.410       .  A
C853        C854   1.410       .  A
C854        C862   1.401       .  A
C855        C864   1.385       .  A
C855        C856   1.399       .  A
C856        C857   1.384       .  A
C856        H867   1.082       .  S
C857        C858   1.397       .  A
C857        H868   1.084       .  S
C858        C859   1.378       .  A
C859        C860   1.397       .  A
C859        H869   1.086       .  S
C860        C861   1.402       .  A
C861        H870   1.084       .  S
C862        C863   1.410       .  A
C862        H871   1.083       .  S
C863        C864   1.402       .  A
C864        H872   1.084       .  S
C873        C874   1.400       .  A
C873        C878   1.404       .  A
C873        H889   1.083       .  S
C874        C875   1.404       .  A
C874        H890   1.084       .  S
C875        C885   1.401       .  A
C875        C876   1.411       .  A
C876        C882   1.411       .  A
C876        C877   1.403       .  A
C877        C879   1.411       .  A
C877        C878   1.412       .  A
C878        C886   1.405       .  A
C879        C888   1.398       .  A
C879        C880   1.401       .  A
C880        C881   1.395       .  A
C880        H891   1.084       .  S
C881        C882   1.402       .  A
C881        H892   1.083       .  S
C882        C883   1.395       .  A
C883        C884   1.401       .  A
C883        H893   1.085       .  S
C884        C885   1.404       .  A
C885        H894   1.084       .  S
C886        C887   1.410       .  A
C886        H895   1.084       .  S
C887        C888   1.403       .  A
C888        H896   1.083       .  S
C897        C898   1.395       .  A
C897        C902   1.407       .  A
C897        H913   1.083       .  S
C898        C899   1.398       .  A
C898        H914   1.083       .  S
C899        C909   1.407   1_655  A
C899        C900   1.420       .  A
C900        C906   1.411       .  A
C900        C901   1.393       .  A
C901        C903   1.410       .  A
C901        C902   1.399       .  A
C902        C910   1.382       .  A
C903        C912   1.405       .  A
C903        C904   1.405       .  A
C904        C905   1.402       .  A
C904        H915   1.083       .  S
C905        C906   1.404       .  A
C905        H916   1.083       .  S
C906        C907   1.403       .  A
C907        C908   1.415   1_655  A
C907        H917   1.084       .  S
C908        C909   1.407       .  A
C909        H918   1.084       .  S
C910        C911   1.415       .  A
C910        H919   1.071       .  S
C911        C912   1.412       .  A
C912        H920   1.081       .  S
C921        C922   1.394       .  A
C921        C926   1.401       .  A
C921        H937   1.084       .  S
C922        C923   1.401       .  A
C922        H938   1.084       .  S
C923        C933   1.395       .  A
C923        C924   1.412       .  A
C924        C930   1.410       .  A
C924        C925   1.406       .  A
C925        C927   1.411       .  A
C925        C926   1.410       .  A
C926        C934   1.395       .  A
C927        C936   1.401       .  A
C927        C928   1.404       .  A
C928        C929   1.399       .  A
C928        H939   1.084       .  S
C929        C930   1.404       .  A
C929        H940   1.084       .  S
C930        C931   1.399       .  A
C931        C932   1.409       .  A
C931        H941   1.084       .  S
C932        C933   1.402       .  A
C933        H942   1.084       .  S
C934        C935   1.404       .  A
C934        H943   1.084       .  S
C935        C936   1.409       .  A
C936        H944   1.084       .  S
C945        C946   1.397       .  A
C945        C950   1.404       .  A
C945        H961   1.081       .  S
C946        C947   1.401       .  A
C946        H962   1.084       .  S
C947        C957   1.405       .  A
C947        C948   1.413       .  A
C948        C954   1.409       .  A
C948        C949   1.416       .  A
C949        C951   1.413       .  A
C949        C950   1.407       .  A
C950        C958   1.402       .  A
C951        C960   1.411       .  A
C951        C952   1.404       .  A
C952        C953   1.402       .  A
C952        H963   1.083       .  S
C953        C954   1.405       .  A
C953        H964   1.084       .  S
C954        C955   1.406       .  A
C955        C956   1.413       .  A
C955        H965   1.084   1_565  S
C956        C957   1.406       .  A
C957        H966   1.084       .  S
C958        C959   1.412       .  A
C958        H967   1.081       .  S
C959        C960   1.410       .  A
C960        H968   1.083       .  S
C969        C970   1.399       .  A
C969        C974   1.405       .  A
C969        H985   1.084       .  S
C970        C971   1.402       .  A
C970        H986   1.084       .  S
C971        C981   1.402       .  A
C971        C972   1.415       .  A
C972        C978   1.408       .  A
C972        C973   1.402       .  A
C973        C975   1.416       .  A
C973        C974   1.409       .  A
C974        C982   1.396       .  A
C975        C984   1.397       .  A
C975        C976   1.399       .  A
C976        C977   1.388       .  A
C976        H987   1.079       .  S
C977        C978   1.399       .  A
C977        H988   1.084       .  S
C978        C979   1.382       .  A
C979        C980   1.406       .  A
C979        H989   1.085       .  S
C980        C981   1.402       .  A
C981        H990   1.081       .  S
C982        C983   1.407       .  A
C982        H991   1.078       .  S
C983        C984   1.400       .  A
C984        H992   1.084       .  S
C993        C994   1.391       .  A
C993        C998   1.401       .  A
C993       H1009   1.084       .  S
C994        C995   1.400       .  A
C994       H1010   1.084       .  S
C995       C1005   1.391       .  A
C995        C996   1.412       .  A
C996       C1002   1.412       .  A
C996        C997   1.405       .  A
C997        C999   1.412       .  A
C997        C998   1.409       .  A
C998       C1006   1.389       .  A
C999       C1008   1.404       .  A
C999       C1000   1.404       .  A
C1000      C1001   1.400       .  A
C1000      H1011   1.084       .  S
C1001      C1002   1.404       .  A
C1001      H1012   1.084       .  S
C1002      C1003   1.403       .  A
C1003      C1004   1.405       .  A
C1003      H1013   1.085       .  S
C1004      C1005   1.399       .  A
C1005      H1014   1.085       .  S
C1006      C1007   1.406   1_556  A
C1006      H1015   1.084       .  S
C1007      C1008   1.408   1_554  A
C1008      H1016   1.083   1_556  S
C1017      C1018   1.395       .  A
C1017      C1022   1.402       .  A
C1017      H1033   1.084       .  S
C1018      C1019   1.402       .  A
C1018      H1034   1.084       .  S
C1019      C1029   1.398       .  A
C1019      C1020   1.410       .  A
C1020      C1026   1.408       .  A
C1020      C1021   1.404       .  A
C1021      C1023   1.415       .  A
C1021      C1022   1.411       .  A
C1022      C1030   1.393       .  A
C1023      C1032   1.399       .  A
C1023      C1024   1.400       .  A
C1024      C1025   1.394       .  A
C1024      H1035   1.082       .  S
C1025      C1026   1.400       .  A
C1025      H1036   1.079       .  S
C1026      C1027   1.394       .  A
C1027      C1028   1.407       .  A
C1027      H1037   1.083       .  S
C1028      C1029   1.412       .  A
C1029      H1038   1.080       .  S
C1030      C1031   1.401       .  A
C1030      H1039   1.086       .  S
C1031      C1032   1.398       .  A
C1032      H1040   1.085       .  S
C1041      C1042   1.404       .  A
C1041      C1046   1.406       .  A
C1041      H1057   1.083       .  S
C1042      C1043   1.403       .  A
C1042      H1058   1.080       .  S
C1043      C1053   1.414       .  A
C1043      C1044   1.411       .  A
C1044      C1050   1.406   1_565  A
C1044      C1045   1.418       .  A
C1045      C1047   1.411   1_565  A
C1045      C1046   1.411       .  A
C1046      C1054   1.412       .  A
C1047      C1056   1.405       .  A
C1047      C1048   1.403       .  A
C1048      C1049   1.398       .  A
C1048      H1059   1.083       .  S
C1049      C1050   1.404       .  A
C1049      H1060   1.083       .  S
C1050      C1051   1.401       .  A
C1051      C1052   1.414   1_455  A
C1051      H1061   1.076       .  S
C1052      C1053   1.413   1_645  A
C1053      H1062   1.083   1_455  S
C1054      C1055   1.411       .  A
C1054      H1063   1.084       .  S
C1055      C1056   1.410   1_565  A
C1056      H1064   1.084       .  S
C1065      C1066   1.390       .  A
C1065      C1070   1.399       .  A
C1065      H1081   1.069       .  S
C1066      C1067   1.396       .  A
C1066      H1082   1.084       .  S
C1067      C1077   1.397       .  A
C1067      C1068   1.418       .  A
C1068      C1074   1.413   1_455  A
C1068      C1069   1.398       .  A
C1069      C1071   1.410       .  A
C1069      C1070   1.405       .  A
C1070      C1078   1.390       .  A
C1071      C1080   1.394       .  A
C1071      C1072   1.401   1_455  A
C1072      C1073   1.395       .  A
C1072      H1083   1.083       .  S
C1073      C1074   1.402       .  A
C1073      H1084   1.083       .  S
C1074      C1075   1.397       .  A
C1075      C1076   1.405       .  A
C1075      H1085   1.085       .  S
C1076      C1077   1.399   1_655  A
C1077      H1086   1.085   1_554  S
C1078      C1079   1.404       .  A
C1078      H1087   1.077       .  S
C1079      C1080   1.405       .  A
C1080      H1088   1.084   1_455  S
C1089      C1090   1.398       .  A
C1089      C1094   1.402       .  A
C1089      H1105   1.083       .  S
C1090      C1091   1.404       .  A
C1090      H1106   1.083       .  S
C1091      C1101   1.396       .  A
C1091      C1092   1.410       .  A
C1092      C1098   1.411       .  A
C1092      C1093   1.401       .  A
C1093      C1095   1.412       .  A
C1093      C1094   1.413       .  A
C1094      C1102   1.404       .  A
C1095      C1104   1.402       .  A
C1095      C1096   1.402       .  A
C1096      C1097   1.398       .  A
C1096      H1107   1.083       .  S
C1097      C1098   1.404       .  A
C1097      H1108   1.084       .  S
C1098      C1099   1.398       .  A
C1099      C1100   1.403       .  A
C1099      H1109   1.085       .  S
C1100      C1101   1.405       .  A
C1101      H1110   1.085       .  S
C1102      C1103   1.407       .  A
C1102      H1111   1.084       .  S
C1103      C1104   1.410       .  A
C1104      H1112   1.083       .  S
C1113      C1114   1.397       .  A
C1113      C1118   1.402       .  A
C1113      H1129   1.084       .  S
C1114      C1115   1.403       .  A
C1114      H1130   1.083       .  S
C1115      C1125   1.398       .  A
C1115      C1116   1.411       .  A
C1116      C1122   1.410       .  A
C1116      C1117   1.403       .  A
C1117      C1119   1.412       .  A
C1117      C1118   1.413       .  A
C1118      C1126   1.397       .  A
C1119      C1128   1.391       .  A
C1119      C1120   1.400       .  A
C1120      C1121   1.391       .  A
C1120      H1131   1.079       .  S
C1121      C1122   1.400       .  A
C1121      H1132   1.084       .  S
C1122      C1123   1.389       .  A
C1123      C1124   1.405   1_545  A
C1123      H1133   1.084       .  S
C1124      C1125   1.405   1_565  A
C1125      H1134   1.084   1_545  S
C1126      C1127   1.399       .  A
C1126      H1135   1.085       .  S
C1127      C1128   1.398       .  A
C1128      H1136   1.086       .  S
C1137      C1138   1.395       .  A
C1137      C1142   1.403       .  A
C1137      H1153   1.084       .  S
C1138      C1139   1.402       .  A
C1138      H1154   1.084       .  S
C1139      C1149   1.395       .  A
C1139      C1140   1.412   1_655  A
C1140      C1146   1.412       .  A
C1140      C1141   1.404       .  A
C1141      C1143   1.410       .  A
C1141      C1142   1.409   1_455  A
C1142      C1150   1.394       .  A
C1143      C1152   1.395       .  A
C1143      C1144   1.403       .  A
C1144      C1145   1.396       .  A
C1144      H1155   1.084       .  S
C1145      C1146   1.402       .  A
C1145      H1156   1.084       .  S
C1146      C1147   1.395       .  A
C1147      C1148   1.400       .  A
C1147      H1157   1.084       .  S
C1148      C1149   1.399   1_455  A
C1149      H1158   1.085       .  S
C1150      C1151   1.409       .  A
C1150      H1159   1.083       .  S
C1151      C1152   1.407   1_655  A
C1152      H1160   1.084       .  S
C1161      C1162   1.401       .  A
C1161      C1166   1.403       .  A
C1161      H1177   1.084       .  S
C1162      C1163   1.405       .  A
C1162      H1178   1.083       .  S
C1163      C1173   1.404       .  A
C1163      C1164   1.410       .  A
C1164      C1170   1.411   1_655  A
C1164      C1165   1.410   1_655  A
C1165      C1167   1.411       .  A
C1165      C1166   1.414   1_455  A
C1166      C1174   1.407   1_655  A
C1167      C1176   1.396       .  A
C1167      C1168   1.402       .  A
C1168      C1169   1.396       .  A
C1168      H1179   1.084       .  S
C1169      C1170   1.403       .  A
C1169      H1180   1.084       .  S
C1170      C1171   1.399   1_455  A
C1171      C1172   1.409       .  A
C1171      H1181   1.083       .  S
C1172      C1173   1.411       .  A
C1173      H1182   1.083       .  S
C1174      C1175   1.403       .  A
C1174      H1183   1.084   1_455  S
C1175      C1176   1.403       .  A
C1176      H1184   1.085       .  S
C1185      C1186   1.398       .  A
C1185      C1190   1.403       .  A
C1185      H1201   1.084       .  S
C1186      C1187   1.404       .  A
C1186      H1202   1.080       .  S
C1187      C1197   1.405       .  A
C1187      C1188   1.412       .  A
C1188      C1194   1.410       .  A
C1188      C1189   1.403       .  A
C1189      C1191   1.413       .  A
C1189      C1190   1.413       .  A
C1190      C1198   1.400       .  A
C1191      C1200   1.388       .  A
C1191      C1192   1.397       .  A
C1192      C1193   1.387   1_455  A
C1192      H1203   1.084   1_455  S
C1193      C1194   1.399   1_655  A
C1193      H1204   1.078       .  S
C1194      C1195   1.391   1_455  A
C1195      C1196   1.403   1_655  A
C1195      H1205   1.083       .  S
C1196      C1197   1.408       .  A
C1197      H1206   1.080       .  S
C1198      C1199   1.400       .  A
C1198      H1207   1.084       .  S
C1199      C1200   1.394       .  A
C1200      H1208   1.086       .  S
C1209      C1210   1.400       .  A
C1209      C1214   1.405       .  A
C1209      H1225   1.083       .  S
C1210      C1211   1.402       .  A
C1210      H1226   1.083       .  S
C1211      C1221   1.405       .  A
C1211      C1212   1.413       .  A
C1212      C1218   1.416       .  A
C1212      C1213   1.400       .  A
C1213      C1215   1.408       .  A
C1213      C1214   1.411       .  A
C1214      C1222   1.399       .  A
C1215      C1224   1.393       .  A
C1215      C1216   1.396       .  A
C1216      C1217   1.396       .  A
C1216      H1227   1.071       .  S
C1217      C1218   1.400       .  A
C1217      H1228   1.083   1_545  S
C1218      C1219   1.401       .  A
C1219      C1220   1.408       .  A
C1219      H1229   1.084       .  S
C1220      C1221   1.412       .  A
C1221      H1230   1.083       .  S
C1222      C1223   1.405       .  A
C1222      H1231   1.084       .  S
C1223      C1224   1.396       .  A
C1224      H1232   1.085       .  S
C1233      C1234   1.398       .  A
C1233      C1238   1.404   1_556  A
C1233      H1249   1.084       .  S
C1234      C1235   1.403       .  A
C1234      H1250   1.084       .  S
C1235      C1245   1.397       .  A
C1235      C1236   1.411   1_556  A
C1236      C1242   1.417       .  A
C1236      C1237   1.398       .  A
C1237      C1239   1.407       .  A
C1237      C1238   1.413       .  A
C1238      C1246   1.398       .  A
C1239      C1248   1.387       .  A
C1239      C1240   1.402       .  A
C1240      C1241   1.394       .  A
C1240      H1251   1.082       .  S
C1241      C1242   1.399       .  A
C1241      H1252   1.083       .  S
C1242      C1243   1.401       .  A
C1243      C1244   1.403       .  A
C1243      H1253   1.084       .  S
C1244      C1245   1.409   1_554  A
C1245      H1254   1.084       .  S
C1246      C1247   1.404       .  A
C1246      H1255   1.084   1_554  S
C1247      C1248   1.405       .  A
C1248      H1256   1.085       .  S
C1257      C1258   1.399   1_554  A
C1257      C1262   1.404   1_554  A
C1257      H1273   1.083       .  S
C1258      C1259   1.402       .  A
C1258      H1274   1.084   1_556  S
C1259      C1269   1.403       .  A
C1259      C1260   1.415       .  A
C1260      C1266   1.410       .  A
C1260      C1261   1.406       .  A
C1261      C1263   1.411       .  A
C1261      C1262   1.409       .  A
C1262      C1270   1.400   1_556  A
C1263      C1272   1.397       .  A
C1263      C1264   1.402       .  A
C1264      C1265   1.395       .  A
C1264      H1275   1.084       .  S
C1265      C1266   1.402       .  A
C1265      H1276   1.084       .  S
C1266      C1267   1.392       .  A
C1267      C1268   1.400       .  A
C1267      H1277   1.085       .  S
C1268      C1269   1.400       .  A
C1269      H1278   1.085       .  S
C1270      C1271   1.409   1_554  A
C1270      H1279   1.083       .  S
C1271      C1272   1.407       .  A
C1272      H1280   1.083       .  S
C1281      C1282   1.399       .  A
C1281      C1286   1.404       .  A
C1281      H1297   1.083       .  S
C1282      C1283   1.404       .  A
C1282      H1298   1.084       .  S
C1283      C1293   1.404       .  A
C1283      C1284   1.411   1_545  A
C1284      C1290   1.410       .  A
C1284      C1285   1.414       .  A
C1285      C1287   1.412       .  A
C1285      C1286   1.412   1_565  A
C1286      C1294   1.405       .  A
C1287      C1296   1.406       .  A
C1287      C1288   1.404       .  A
C1288      C1289   1.401       .  A
C1288      H1299   1.084       .  S
C1289      C1290   1.405       .  A
C1289      H1300   1.084       .  S
C1290      C1291   1.405       .  A
C1291      C1292   1.411       .  A
C1291      H1301   1.083       .  S
C1292      C1293   1.411   1_565  A
C1293      H1302   1.083       .  S
C1294      C1295   1.406       .  A
C1294      H1303   1.084       .  S
C1295      C1296   1.410   1_545  A
C1296      H1304   1.084       .  S
C1305      C1306   1.396       .  A
C1305      C1310   1.399       .  A
C1305      H1321   1.084       .  S
C1306      C1307   1.404       .  A
C1306      H1322   1.084       .  S
C1307      C1317   1.389       .  A
C1307      C1308   1.412       .  A
C1308      C1314   1.416       .  A
C1308      C1309   1.398       .  A
C1309      C1311   1.418       .  A
C1309      C1310   1.420       .  A
C1310      C1318   1.404       .  A
C1311      C1320   1.406       .  A
C1311      C1312   1.402       .  A
C1312      C1313   1.398       .  A
C1312      H1323   1.084       .  S
C1313      C1314   1.405       .  A
C1313      H1324   1.084       .  S
C1314      C1315   1.398       .  A
C1315      C1316   1.400       .  A
C1315      H1325   1.084       .  S
C1316      C1317   1.400       .  A
C1317      H1326   1.086       .  S
C1318      C1319   1.408       .  A
C1318      H1327   1.084       .  S
C1319      C1320   1.409       .  A
C1320      H1328   1.084       .  S
C1329      C1330   1.400       .  A
C1329      C1334   1.405       .  A
C1329      H1345   1.083       .  S
C1330      C1331   1.404       .  A
C1330      H1346   1.084       .  S
C1331      C1341   1.404       .  A
C1331      C1332   1.417       .  A
C1332      C1338   1.416       .  A
C1332      C1333   1.397       .  A
C1333      C1335   1.411       .  A
C1333      C1334   1.411       .  A
C1334      C1342   1.404       .  A
C1335      C1344   1.398       .  A
C1335      C1336   1.402       .  A
C1336      C1337   1.397       .  A
C1336      H1347   1.083       .  S
C1337      C1338   1.402       .  A
C1337      H1348   1.083       .  S
C1338      C1339   1.401       .  A
C1339      C1340   1.403       .  A
C1339      H1349   1.085       .  S
C1340      C1341   1.406       .  A
C1341      H1350   1.079       .  S
C1342      C1343   1.412       .  A
C1342      H1351   1.084       .  S
C1343      C1344   1.408       .  A
C1344      H1352   1.083       .  S
C1353      C1354   1.399       .  A
C1353      C1358   1.405       .  A
C1353      H1369   1.084       .  S
C1354      C1355   1.402       .  A
C1354      H1370   1.084       .  S
C1355      C1365   1.405       .  A
C1355      C1356   1.417       .  A
C1356      C1362   1.403       .  A
C1356      C1357   1.402       .  A
C1357      C1359   1.417       .  A
C1357      C1358   1.407       .  A
C1358      C1366   1.394       .  A
C1359      C1368   1.393       .  A
C1359      C1360   1.398       .  A
C1360      C1361   1.390       .  A
C1360      H1371   1.084       .  S
C1361      C1362   1.403       .  A
C1361      H1372   1.084       .  S
C1362      C1363   1.380       .  A
C1363      C1364   1.410       .  A
C1363      H1373   1.081       .  S
C1364      C1365   1.403       .  A
C1365      H1374   1.084       .  S
C1366      C1367   1.407       .  A
C1366      H1375   1.085       .  S
C1367      C1368   1.395       .  A
C1368      H1376   1.085       .  S
C1377      C1378   1.397       .  A
C1377      C1382   1.395       .  A
C1377      H1393   1.080       .  S
C1378      C1379   1.400       .  A
C1378      H1394   1.079       .  S
C1379      C1389   1.392       .  A
C1379      C1380   1.411       .  A
C1380      C1386   1.412       .  A
C1380      C1381   1.397       .  A
C1381      C1383   1.416       .  A
C1381      C1382   1.417       .  A
C1382      C1390   1.404       .  A
C1383      C1392   1.405       .  A
C1383      C1384   1.401       .  A
C1384      C1385   1.399       .  A
C1384      H1395   1.083       .  S
C1385      C1386   1.405       .  A
C1385      H1396   1.084       .  S
C1386      C1387   1.396       .  A
C1387      C1388   1.402       .  A
C1387      H1397   1.085       .  S
C1388      C1389   1.397       .  A
C1389      H1398   1.085       .  S
C1390      C1391   1.405       .  A
C1390      H1399   1.084       .  S
C1391      C1392   1.412       .  A
C1392      H1400   1.084       .  S
C1401      C1402   1.400       .  A
C1401      C1406   1.403   1_556  A
C1401      H1417   1.083       .  S
C1402      C1403   1.404       .  A
C1402      H1418   1.083       .  S
C1403      C1413   1.405       .  A
C1403      C1404   1.410       .  A
C1404      C1410   1.412   1_556  A
C1404      C1405   1.416   1_556  A
C1405      C1407   1.411       .  A
C1405      C1406   1.414       .  A
C1406      C1414   1.407       .  A
C1407      C1416   1.406       .  A
C1407      C1408   1.405       .  A
C1408      C1409   1.401       .  A
C1408      H1419   1.084       .  S
C1409      C1410   1.404       .  A
C1409      H1420   1.084       .  S
C1410      C1411   1.407   1_554  A
C1411      C1412   1.411       .  A
C1411      H1421   1.083       .  S
C1412      C1413   1.411       .  A
C1413      H1422   1.083       .  S
C1414      C1415   1.404       .  A
C1414      H1423   1.085       .  S
C1415      C1416   1.409       .  A
C1416      H1424   1.085       .  S
