geometry optimzed in LAMMPS
_audit_creation_date              2020-11-30 
_audit_creation_method            'lammps2cif' 
_symmetry_space_group_name_H-M    'P1' 
_symmetry_Int_Tables_number       1 
_symmetry_cell_setting            triclinic 
loop_ 
_symmetry_equiv_pos_as_xyz 
  x,y,z 
_cell_length_a                    37.98528282 
_cell_length_b                    36.71863539521529 
_cell_length_c                    37.31591506194615 
_cell_angle_alpha                 89.04402571548563 
_cell_angle_beta                  90.90355834436343 
_cell_angle_gamma                 90.25640175760223 
loop_ 
_atom_site_label 
_atom_site_type_symbol 
_atom_site_fract_x 
_atom_site_fract_y 
_atom_site_fract_z 
_atom_site_charge 
Zr1        Zr  0.66733116  0.66882426  0.57494993     2.17500
O2          O  0.64446253  0.65895951  0.51450923    -0.51900
O3          O  0.72117677  0.70059931  0.55497860    -0.75100
O4          O  0.62190697  0.71832600  0.55982462    -0.81900
O5          O  0.73186860  0.58904258  0.58133580    -0.83700
O6          O  0.61755253  0.75156429  0.60935628    -0.79300
O7          O  0.71210145  0.63301890  0.54210480    -0.90900
O8          O  0.75033487  0.71073100  0.60765258    -0.76900
O9          O  0.67069165  0.71212281  0.62214084    -0.86400
O10         O  0.71332962  0.65058721  0.61578703    -0.86100
O11         O  0.61200596  0.66158981  0.60603567    -0.72800
O12         O  0.65327114  0.60756466  0.59718821    -0.85000
Zr13       Zr  0.64507055  0.62851591  0.71511853     2.26400
Zr14       Zr  0.61643850  0.70511250  0.65337742     2.06300
Zr15       Zr  0.70054591  0.59158295  0.63782317     2.10000
Zr16       Zr  0.71690900  0.69314703  0.66154802     1.78800
O17         O  0.68899355  0.53170444  0.61310133    -0.93800
O18         O  0.71938867  0.75901660  0.66813601    -0.41600
O19         O  0.70187553  0.63407473  0.68617568    -0.78200
O20         O  0.66278821  0.68865890  0.69432206    -0.96900
O21         O  0.59934990  0.64578592  0.67473591    -0.90200
O22         O  0.64624302  0.58580151  0.66743979    -0.93000
C23         C  0.74872963  0.71055436  0.57297945     1.00700
C24         C  0.73275672  0.60618680  0.55098429     1.13700
C25         C  0.60720148  0.74413921  0.57808587     1.04400
O26         O  0.61371177  0.76687008  0.67608630    -0.95200
O27         O  0.59409796  0.71717972  0.71048008    -0.90900
O28         O  0.58818611  0.65973449  0.73067383    -0.84100
C29         C  0.57629260  0.69273820  0.72599579     1.11100
O30         O  0.56662827  0.59389514  0.57302341    -0.97200
Zr31       Zr  0.59860027  0.60141402  0.62963999     1.88900
O32         O  0.61085744  0.57523617  0.73303117    -0.73800
O33         O  0.55422511  0.70883441  0.63671382    -0.53100
O34         O  0.53727527  0.61901438  0.63635555    -0.97700
O35         O  0.59867419  0.53903836  0.60832126    -0.55000
O36         O  0.58080357  0.56177306  0.68166460    -0.74300
C37         C  0.58902423  0.55561829  0.71517636     0.98000
O38         O  0.65881695  0.64766443  0.77588195    -0.63100
O39         O  0.76199234  0.57755625  0.65149816    -0.57900
O40         O  0.67777052  0.57532896  0.73893104    -0.94600
O41         O  0.70907916  0.55450608  0.69179556    -0.93100
O42         O  0.77358994  0.66487929  0.67484405    -0.93400
O43         O  0.74585938  0.71869290  0.71413158    -0.92200
C44         C  0.69888123  0.55257531  0.72449679     1.16900
H45         H  0.73612715  0.64907877  0.60509328     0.32800
H46         H  0.66363858  0.70518767  0.71415912     0.43700
H47         H  0.64440950  0.56073491  0.67540239     0.37200
H48         H  0.59256813  0.66799178  0.59016994     0.33700
H49         H  0.71611325  0.76902936  0.64352216     0.25500
H50         H  0.54237879  0.69104624  0.65272770     0.31400
H51         H  0.53185373  0.61334983  0.66171250     0.37300
H52         H  0.78573022  0.66414203  0.65157895     0.31800
H53         H  0.76649589  0.55439412  0.63916718     0.30600
H54         H  0.70911633  0.51662188  0.62154079     0.32300
H55         H  0.57617497  0.52836638  0.61661787     0.31300
H56         H  0.74165833  0.70053807  0.73350671     0.35300
H57         H  0.65728142  0.62508440  0.79068440     0.28000
H58         H  0.64980186  0.68183923  0.50122536     0.32200
H59         H  0.54484657  0.58036228  0.57905236     0.35100
H60         H  0.77573434  0.59602020  0.63801083     0.27700
H61         H  0.68424266  0.65361936  0.77552963     0.40600
H62         H  0.63635117  0.77068568  0.68901031     0.30600
H63         H  0.69743450  0.76525567  0.68050769     0.38300
H64         H  0.61692676  0.52646519  0.62309055     0.30100
H65         H  0.54670773  0.73284782  0.64547136     0.30200
H66         H  0.61852871  0.65888457  0.51689188     0.30400
Zr67       Zr  0.90970456  0.66439211  0.30270457     2.17500
O68         O  0.87922373  0.69242171  0.25149860    -0.51900
O69         O  0.94152014  0.61815687  0.26929855    -0.75100
O70         O  0.94952028  0.71593322  0.27914145    -0.81900
O71         O  0.84062786  0.58999471  0.31656398    -0.83700
O72         O  0.97859821  0.74082817  0.32663555    -0.79300
O73         O  0.87186801  0.61822670  0.27222033    -0.90900
O74         O  0.96098617  0.57436766  0.30876434    -0.76900
O75         O  0.96295319  0.65796446  0.33656220    -0.86400
O76         O  0.90614200  0.60932480  0.33758817    -0.86100
O77         O  0.90931784  0.71470178  0.34345638    -0.72800
O78         O  0.85870429  0.66941148  0.34143720    -0.85000
Zr79       Zr  0.91241376  0.66041800  0.44961505     2.26400
Zr80       Zr  0.96266860  0.70724875  0.37755899     2.06300
Zr81       Zr  0.85726214  0.61329012  0.37548293     2.10000
Zr82       Zr  0.95906157  0.60182511  0.36941887     1.78800
O83         O  0.79356378  0.61597127  0.36756669    -0.93800
O84         O  0.02104267  0.60833161  0.35422365    -0.41600
O85         O  0.91064465  0.60751818  0.41070146    -0.78200
O86         O  0.96180206  0.65132751  0.41100580    -0.96900
O87         O  0.91424456  0.71586785  0.41651604    -0.90200
O88         O  0.85972696  0.66390698  0.41384749    -0.93000
C89         C  0.95413714  0.58624087  0.27655255     1.00700
C90         C  0.84980392  0.59379993  0.28360868     1.13700
C91         C  0.97085909  0.74001973  0.29356662     1.04400
O92         O  0.02571819  0.71061650  0.36727735    -0.95200
O93         O  0.99904286  0.71266494  0.42908528    -0.90900
O94         O  0.95549300  0.71075413  0.46921585    -0.84100
C95         C  0.98565880  0.72358077  0.45770144     1.11100
O96         O  0.83863775  0.76171445  0.33681562    -0.97200
Zr97       Zr  0.86016374  0.71955422  0.38332377     1.88900
O98         O  0.87002867  0.69321106  0.48427035    -0.73800
O99         O  0.95551942  0.77098856  0.39332336    -0.53100
O100        O  0.87442287  0.78289090  0.39582461    -0.97700
O101        O  0.79649286  0.71382519  0.37596503    -0.55000
O102        O  0.83548775  0.72608418  0.44520676    -0.74300
C103        C  0.84352181  0.71376689  0.47716385     0.98000
O104        O  0.94192298  0.63095169  0.50063776    -0.63100
O105        O  0.85826459  0.54731289  0.38372624    -0.57900
O106        O  0.86314731  0.62679080  0.47897027    -0.94600
O107        O  0.83148825  0.60035752  0.43366533    -0.93100
O108        O  0.94427241  0.53805357  0.38070708    -0.93400
O109        O  0.00076915  0.57337264  0.41137935    -0.92200
C110        C  0.83660237  0.60810883  0.46687690     1.16900
H111        H  0.90314736  0.58760660  0.32382589     0.32800
H112        H  0.98291348  0.64833911  0.42541289     0.43700
H113        H  0.83839516  0.66417412  0.42736143     0.37200
H114        H  0.90995752  0.73733666  0.32993828     0.33700
H115        H  0.02744078  0.58456269  0.34407303     0.25500
H116        H  0.97977120  0.78041514  0.39662484     0.31400
H117        H  0.85345091  0.79230869  0.40801426     0.37300
H118        H  0.93255350  0.53762328  0.40423388     0.31800
H119        H  0.83335888  0.54036821  0.38748209     0.30600
H120        H  0.78968195  0.63227144  0.34648753     0.32300
H121        H  0.79019280  0.69150245  0.38970217     0.31300
H122        H  0.98863011  0.57330365  0.43465821     0.35300
H123        H  0.93046787  0.60675311  0.50276290     0.28000
H124        H  0.89666071  0.69252066  0.23205088     0.32200
H125        H  0.82045927  0.77658560  0.34833574     0.35100
H126        H  0.86387101  0.53753341  0.35991696     0.27700
H127        H  0.96584930  0.62568492  0.49202244     0.40600
H128        H  0.03315031  0.68497476  0.36495049     0.30600
H129        H  0.02167754  0.62541705  0.33344343     0.38300
H130        H  0.79268991  0.70717681  0.35058848     0.30100
H131        H  0.94666476  0.78339577  0.37122873     0.30200
H132        H  0.87682411  0.71832536  0.25792780     0.30400
Zr133      Zr  0.89343388  0.40586501  0.19123294     2.17500
O134        O  0.87819388  0.38419863  0.25106068    -0.51900
O135        O  0.92878395  0.45911971  0.20778054    -0.75100
O136        O  0.94672258  0.36777504  0.20977616    -0.81900
O137        O  0.83092457  0.48353797  0.16958092    -0.83700
O138        O  0.93375086  0.31348780  0.18652139    -0.79300
O139        O  0.86596049  0.46113453  0.21519706    -0.90900
O140        O  0.95200792  0.47642562  0.15423026    -0.76900
O141        O  0.93715153  0.38955228  0.14949102    -0.86400
O142        O  0.88896951  0.44950804  0.14287939    -0.86100
O143        O  0.87423911  0.34677963  0.17045999    -0.72800
O144        O  0.83439022  0.40339962  0.16432063    -0.85000
Zr145      Zr  0.86138002  0.36999103  0.05325194     2.26400
Zr146      Zr  0.91818447  0.33149558  0.12744874     2.06300
Zr147      Zr  0.83268933  0.44668045  0.11518867     2.10000
Zr148      Zr  0.93440659  0.43542566  0.10403477     1.78800
O149        O  0.77077848  0.45886159  0.12584262    -0.93800
O150        O  0.99750628  0.42623232  0.11277362    -0.41600
O151        O  0.87755924  0.43040453  0.07403766    -0.78200
O152        O  0.91954347  0.37610455  0.08004149    -0.96900
O153        O  0.86078014  0.32649080  0.10100275    -0.90200
O154        O  0.81702452  0.38793075  0.09420028    -0.93000
C155        C  0.94659053  0.48136133  0.18813383     1.00700
C156        C  0.84461470  0.48509235  0.20144046     1.13700
C157        C  0.95421300  0.33367814  0.20430239     1.04400
O158        O  0.97948034  0.33710492  0.10992624    -0.95200
O159        O  0.90567892  0.28643283  0.08409748    -0.90900
O160        O  0.90126184  0.32002820  0.03392501    -0.84100
C161        C  0.91383131  0.29235609  0.05181511     1.11100
O162        O  0.79241745  0.33092389  0.20023049    -0.97200
Zr163      Zr  0.81713673  0.34487497  0.14177413     1.88900
O164        O  0.81047455  0.33076838  0.03914648    -0.73800
O165        O  0.93885472  0.26862060  0.13204076    -0.53100
O166        O  0.81980360  0.27987290  0.15557077    -0.97700
O167        O  0.75711909  0.36553462  0.15123407    -0.55000
O168        O  0.78345556  0.31821485  0.09199228    -0.74300
C169        C  0.78567660  0.31608617  0.05768459     0.98000
O170        O  0.87750335  0.38039193  0.99092939    -0.63100
O171        O  0.84357457  0.50856932  0.09333138    -0.57900
O172        O  0.82152386  0.40918256  0.01855060    -0.94600
O173        O  0.80404103  0.45394014  0.05597325    -0.93100
O174        O  0.93060656  0.49649212  0.07780121    -0.93400
O175        O  0.96609485  0.44224325  0.04805768    -0.92200
C176        C  0.80363950  0.43772596  0.02555182     1.16900
H177        H  0.89112270  0.47438429  0.15011826     0.32800
H178        H  0.93712184  0.36985025  0.06280926     0.43700
H179        H  0.79402960  0.38864285  0.08277775     0.37200
H180        H  0.87356385  0.32976069  0.19049580     0.33700
H181        H  0.00073447  0.42057652  0.13865907     0.25500
H182        H  0.96339107  0.26966676  0.14121200     0.31400
H183        H  0.82480835  0.26828412  0.13243082     0.37300
H184        H  0.90859429  0.49648604  0.06325962     0.31800
H185        H  0.81993722  0.51974135  0.09127873     0.30600
H186        H  0.76786688  0.45493022  0.15192786     0.32300
H187        H  0.74186935  0.34524825  0.14310401     0.31300
H188        H  0.95234207  0.42780957  0.03052082     0.35300
H189        H  0.90335834  0.37714506  0.99044717     0.28000
H190        H  0.85213901  0.38333461  0.25072699     0.32200
H191        H  0.80229599  0.34986235  0.21612837     0.35100
H192        H  0.85519215  0.52124542  0.11354960     0.27700
H193        H  0.86773145  0.35918808  0.97802189     0.40600
H194        H  0.98079891  0.32445634  0.08676458     0.30600
H195        H  0.00270410  0.40315616  0.10068163     0.38300
H196        H  0.75314095  0.38515369  0.13314738     0.30100
H197        H  0.92518784  0.25653424  0.15127855     0.30200
H198        H  0.88424607  0.40474236  0.26687143     0.30400
C199        C  0.77835293  0.50652214  0.95761999     0.79600
N200        N  0.74798559  0.49305774  0.94349516    -0.78700
C201        C  0.73496061  0.46099641  0.95582125     0.82100
N202        N  0.75292976  0.44205641  0.98230510    -0.78600
C203        C  0.78389179  0.45541641  0.99582838     0.82200
N204        N  0.79585037  0.48783125  0.98375309    -0.80300
C205        C  0.00625185  0.56019716  0.19879930     0.79600
N206        N  0.99016651  0.52963833  0.18712926    -0.78700
C207        C  0.96202113  0.51525629  0.20407030     0.82100
N208        N  0.94950756  0.53244373  0.23403919    -0.78600
C209        C  0.96531911  0.56440365  0.24527749     0.82200
N210        N  0.99331875  0.57757027  0.22732837    -0.80300
Zr211      Zr  0.62894390  0.28660933  0.90050047     2.17500
O212        O  0.66001179  0.23186031  0.88335083    -0.51900
O213        O  0.58162707  0.25774751  0.93362716    -0.75100
O214        O  0.67149269  0.26918421  0.95063585    -0.81900
O215        O  0.56600374  0.29144841  0.82172478    -0.83700
O216        O  0.66711249  0.31746922  0.98563054    -0.79300
O217        O  0.58800544  0.25061794  0.86304846    -0.90900
O218        O  0.54643020  0.30414831  0.95091748    -0.76900
O219        O  0.62351451  0.32872310  0.94797117    -0.86400
O220        O  0.57849996  0.32369597  0.88720524    -0.86100
O221        O  0.68191469  0.32298700  0.89709830    -0.72800
O222        O  0.63763172  0.31687040  0.84273114    -0.87400
Zr223      Zr  0.63567833  0.43267915  0.87822076     2.26400
Zr224      Zr  0.67550392  0.36573426  0.94434140     2.06300
Zr225      Zr  0.58671917  0.35445102  0.83131613     2.10000
Zr226      Zr  0.57260637  0.36392468  0.93492402     1.78800
O227        O  0.59547484  0.34379977  0.76780671    -0.93800
O228        O  0.57606148  0.36473398  0.00014477    -0.41600
O229        O  0.58170719  0.39697932  0.87922183    -0.78200
O230        O  0.62410152  0.40252130  0.93463503    -0.96900
O231        O  0.68628202  0.39610767  0.88884647    -0.90200
O232        O  0.63857922  0.39023282  0.83031248    -0.93000
C233        C  0.55370003  0.26997908  0.94799718     1.00700
C234        C  0.56808417  0.25905945  0.83586800     1.13700
C235        C  0.68117279  0.28740273  0.97869948     1.04400
O236        O  0.70169541  0.37709566  0.00317226    -0.95200
O237        O  0.68388157  0.42643327  0.96295143    -0.90900
O238        O  0.68910704  0.45558263  0.91045576    -0.84100
C239        C  0.70052981  0.44785930  0.94246525     1.11100
O240        O  0.72613609  0.30343273  0.82599033    -0.97200
Zr241      Zr  0.68938484  0.35506261  0.84087224     1.88900
O242        O  0.66971123  0.46181087  0.83228878    -0.73800
O243        O  0.73798441  0.35372582  0.93656076    -0.53100
O244        O  0.75234168  0.36317515  0.85174537    -0.97700
O245        O  0.68473818  0.34146796  0.77723621    -0.55000
O246        O  0.70369258  0.41495388  0.81373597    -0.74300
C247        C  0.69364959  0.44859786  0.81278083     0.98000
O248        O  0.61177114  0.48621141  0.90651799    -0.63100
O249        O  0.52319645  0.35706613  0.82237138    -0.57900
O250        O  0.60406370  0.46166981  0.82793835    -0.94600
O251        O  0.57522410  0.41443986  0.80115791    -0.93100
O252        O  0.51113238  0.36852494  0.91588656    -0.93400
O253        O  0.54279944  0.41453496  0.96280483    -0.92200
C254        C  0.58415454  0.44856197  0.80307285     1.16900
H255        H  0.55714570  0.30951211  0.88551717     0.32800
H256        H  0.62149868  0.42028874  0.95315316     0.43700
H257        H  0.63991505  0.40197202  0.80704119     0.37200
H258        H  0.70208871  0.30755455  0.90140182     0.33700
H259        H  0.57677468  0.33878252  0.00772959     0.25500
H260        H  0.75032815  0.37466054  0.94752362     0.31400
H261        H  0.75416009  0.38275699  0.86960327     0.37300
H262        H  0.49751532  0.36229644  0.93757986     0.31800
H263        H  0.51565483  0.37794254  0.83676853     0.30600
H264        H  0.57351909  0.33174050  0.75950536     0.32300
H265        H  0.67471076  0.36368784  0.76576354     0.31300
H266        H  0.55922057  0.43542423  0.96051285     0.35300
H267        H  0.62040600  0.50695960  0.89178523     0.28000
H268        H  0.65945285  0.23250633  0.85680466     0.32200
H269        H  0.70932860  0.28303613  0.82261192     0.35100
H270        H  0.51977855  0.36531993  0.79715822     0.27700
H271        H  0.58618243  0.48505385  0.90117370     0.40600
H272        H  0.68151816  0.38071181  0.01921333     0.30600
H273        H  0.60000069  0.37405597  0.00569849     0.38300
H274        H  0.66571081  0.32304647  0.77540729     0.30100
H275        H  0.74348312  0.33284347  0.95272864     0.30200
H276        H  0.64412995  0.21150598  0.89005578     0.30400
Zr277      Zr  0.45446305  0.08797796  0.89275380     2.17500
O278        O  0.50245165  0.05959277  0.92689319    -0.51900
O279        O  0.48883567  0.13240529  0.85744337    -0.75100
O280        O  0.47991454  0.03976627  0.85208060    -0.81900
O281        O  0.43641714  0.17039579  0.95131150    -0.83700
O282        O  0.43624559  0.99826411  0.84362087    -0.79300
O283        O  0.48164434  0.13754727  0.92870195    -0.90900
O284        O  0.44828119  0.15872798  0.81981009    -0.76900
O285        O  0.42137994  0.08142058  0.83852146    -0.86400
O286        O  0.41903304  0.14131276  0.88513857    -0.86100
O287        O  0.41607100  0.03628350  0.90354753    -0.72800
O288        O  0.41445331  0.09030711  0.94329121    -0.85000
Zr289      Zr  0.30907716  0.08556773  0.88466860     2.26400
Zr290      Zr  0.38319589  0.03022647  0.84910368     2.06300
Zr291      Zr  0.37985889  0.14408852  0.93387064     2.10000
Zr292      Zr  0.38834890  0.13604408  0.83052775     1.78800
O293        O  0.38382427  0.14365486  0.99904482    -0.93800
O294        O  0.39635833  0.12175801  0.76766108    -0.41600
O295        O  0.34679049  0.13910402  0.87856153    -0.78200
O296        O  0.35024484  0.08420938  0.83643336    -0.96900
O297        O  0.34173969  0.03137144  0.89630733    -0.90200
O298        O  0.34201842  0.09295771  0.93942147    -0.93000
C299        C  0.47988242  0.15552447  0.83266541     1.00700
C300        C  0.46936352  0.16444812  0.94664764     1.13700
C301        C  0.46762658  0.00918079  0.83932913     1.04400
O302        O  0.39648414  0.01991470  0.78650033    -0.95200
O303        O  0.33327898  0.01047156  0.81539499    -0.90900
O304        O  0.28732884  0.04459844  0.83394332    -0.84100
C305        C  0.30133377  0.02059280  0.81283727     1.11100
O306        O  0.41848113  0.00579976  0.98547746    -0.97200
Zr307      Zr  0.37403253  0.03956549  0.95091947     1.88900
O308        O  0.27379646  0.05624137  0.93210881    -0.73800
O309        O  0.37439213  0.96649918  0.86625380    -0.53100
O310        O  0.36533627  0.97406702  0.94593780    -0.97700
O311        O  0.37558528  0.05626074  0.01392155    -0.55000
O312        O  0.31319761  0.03304514  0.97310235    -0.74300
C313        C  0.28147692  0.04088541  0.96259089     0.98000
O314        O  0.25919681  0.10961075  0.85007639    -0.63100
O315        O  0.37574773  0.21004443  0.92679611    -0.57900
O316        O  0.27940291  0.13094461  0.92162270    -0.94600
O317        O  0.32162211  0.16312088  0.95204356    -0.93100
O318        O  0.38486522  0.20200465  0.83531786    -0.93400
O319        O  0.34393754  0.16254337  0.79030374    -0.92200
C320        C  0.28941715  0.15487905  0.94465549     1.16900
H321        H  0.43271791  0.16352076  0.88447604     0.32800
H322        H  0.33803954  0.08238364  0.81370671     0.43700
H323        H  0.32704698  0.09671105  0.95962974     0.37200
H324        H  0.43032220  0.01490234  0.90811886     0.33700
H325        H  0.40528339  0.14463579  0.75660398     0.25500
H326        H  0.34895089  0.96405727  0.87119983     0.31400
H327        H  0.34209781  0.96909915  0.95666818     0.37300
H328        H  0.36188510  0.20656353  0.84652510     0.31800
H329        H  0.35376772  0.21432977  0.91278756     0.30600
H330        H  0.38567041  0.16965565  0.00544027     0.32300
H331        H  0.35734549  0.07523601  0.01611362     0.31300
H332        H  0.32137057  0.15227991  0.79884521     0.35300
H333        H  0.23941296  0.11000721  0.86701228     0.28000
H334        H  0.49453333  0.05975252  0.95205071     0.32200
H335        H  0.40539698  0.99243876  0.00432892     0.35100
H336        H  0.37059041  0.21892941  0.95106825     0.27700
H337        H  0.26513870  0.13556850  0.84566817     0.40600
H338        H  0.38528474  0.04047457  0.77323353     0.30600
H339        H  0.41677684  0.10511217  0.76763858     0.38300
H340        H  0.39816600  0.06944674  0.01719610     0.30100
H341        H  0.37762242  0.95291265  0.84386260     0.30200
H342        H  0.52198145  0.07752714  0.92606511     0.30400
C343        C  0.50438276  0.22223864  0.01852570     0.79600
N344        N  0.52401698  0.24692507  0.00046867    -0.78700
C345        C  0.52970868  0.24329843  0.96505187     0.82100
N346        N  0.51423838  0.21490004  0.94698904    -0.78600
C347        C  0.49342283  0.19033228  0.96516314     0.82200
N348        N  0.48902339  0.19424583  0.00093320    -0.80300
C349        C  0.52158150  0.21140411  0.76291295     0.79600
N350        N  0.50381184  0.18465731  0.78008232    -0.78700
C351        C  0.50659627  0.18010498  0.81608489     0.82100
N352        N  0.52821502  0.20320822  0.83536502    -0.78600
C353        C  0.54660086  0.23039368  0.81767655     0.82200
N354        N  0.54220517  0.23448149  0.78173964    -0.80300
C355        C  0.53819943  0.96010304  0.79024744     0.79600
N356        N  0.52289543  0.98536588  0.81151496    -0.78700
C357        C  0.48748256  0.98366109  0.81627314     0.82100
N358        N  0.46820816  0.95827760  0.79761700    -0.78600
C359        C  0.48366465  0.93413235  0.77548249     0.82200
N360        N  0.51862817  0.93522841  0.77240102    -0.80300
C361        C  0.98255701  0.03142004  0.25739710     0.79600
N362        N  0.00402751  0.00958675  0.27764252    -0.78700
C363        C  0.03869136  0.01764162  0.28166889     0.82100
N364        N  0.05164347  0.04823942  0.26456319    -0.78600
C365        C  0.02979896  0.07025700  0.24364615     0.82200
N366        N  0.99543341  0.06140560  0.24044225    -0.80300
C367        C  0.24046219  0.23580575  0.96993331     0.79600
N368        N  0.26293882  0.21311668  0.95398748    -0.78700
C369        C  0.26284757  0.17714418  0.96216161     0.82100
N370        N  0.24151176  0.16405004  0.98882312    -0.78600
C371        C  0.21908508  0.18740240  0.00541315     0.82200
N372        N  0.21847908  0.22295721  0.99530185    -0.80300
C373        C  0.22620027  0.97951293  0.01755504     0.79600
N374        N  0.25142687  0.99289531  0.99575459    -0.78700
C375        C  0.25234341  0.02862624  0.98652031     0.82100
N376        N  0.22855249  0.05180730  0.00170328    -0.78600
C377        C  0.20287010  0.03810312  0.02409351     0.82200
N378        N  0.20187621  0.00187827  0.03131100    -0.80300
C379        C  0.25986453  0.01715286  0.23736431     0.79600
N380        N  0.24383488  0.03399473  0.20885891    -0.78700
C381        C  0.20846414  0.03146418  0.20432299     0.82100
N382        N  0.18920333  0.01116576  0.22856900    -0.78600
C383        C  0.20520350  0.99438984  0.25749397     0.82200
N384        N  0.24054854  0.99812285  0.26172649    -0.80300
C385        C  0.97344237  0.25107646  0.98658669     0.79600
N386        N  0.94596112  0.26885448  0.00082044    -0.78700
C387        C  0.94123878  0.26847805  0.03664862     0.82100
N388        N  0.96441948  0.24925674  0.05854741    -0.78600
C389        C  0.99247520  0.23137085  0.04428283     0.82200
N390        N  0.99689313  0.23316228  0.00821120    -0.80300
C391        C  0.03590894  0.31248259  0.25656179     0.79600
N392        N  0.00584209  0.32901663  0.24490899    -0.78700
C393        C  0.98808378  0.31637710  0.21595458     0.82100
N394        N  0.00075288  0.28626455  0.19861646    -0.78600
C395        C  0.03167079  0.27019294  0.20968281     0.82200
N396        N  0.04871704  0.28373659  0.23863407    -0.80300
Zr397      Zr  0.04418801  0.15811463  0.14223272     2.17500
O398        O  0.98217597  0.14167466  0.13656036    -0.51900
O399        O  0.02985903  0.21366007  0.17637761    -0.75100
O400        O  0.02711946  0.11429978  0.19313313    -0.81900
O401        O  0.05123161  0.21133183  0.05354865    -0.83700
O402        O  0.07606060  0.10837170  0.22681857    -0.79300
O403        O  0.01160394  0.19558587  0.09648715    -0.90900
O404        O  0.08248863  0.23863344  0.19260040    -0.76900
O405        O  0.09014995  0.15595018  0.18596752    -0.86400
O406        O  0.08653932  0.20398065  0.12639590    -0.86100
O407        O  0.06980386  0.09805895  0.13606763    -0.72800
O408        O  0.06753142  0.14288476  0.08368903    -0.85000
Zr409      Zr  0.18166385  0.12627370  0.11271699     2.26400
Zr410      Zr  0.11594583  0.09680441  0.18084554     2.06300
Zr411      Zr  0.11042774  0.18921876  0.06978813     2.10000
Zr412      Zr  0.13135575  0.20217841  0.17113855     1.78800
O413        O  0.10039960  0.19245586  0.00515099    -0.93800
O414        O  0.13704345  0.19968438  0.23627924    -0.41600
O415        O  0.15660631  0.18704618  0.11451719    -0.78200
O416        O  0.15919239  0.14304656  0.17005220    -0.96900
O417        O  0.13928589  0.08055601  0.12443984    -0.90200
O418        O  0.13642236  0.13049191  0.06728345    -0.93000
C419        C  0.04860071  0.23883535  0.19132969     1.00700
C420        C  0.01997451  0.21169877  0.06664858     1.13700
C421        C  0.04426529  0.10043051  0.22073215     1.04400
O422        O  0.14969428  0.09349492  0.23689045    -0.95200
O423        O  0.15706953  0.04914481  0.17471715    -0.90900
O424        O  0.20528791  0.08052376  0.15865120    -0.84100
C425        C  0.18991313  0.05451552  0.17681094     1.11100
O426        O  0.04128494  0.05380062  0.05973171    -0.97200
Zr427      Zr  0.09551659  0.08406607  0.07882429     1.88900
O428        O  0.19835701  0.08297680  0.06799633    -0.73800
O429        O  0.08722236  0.03914274  0.19617721    -0.53100
O430        O  0.08908499  0.02096716  0.09905098    -0.97700
O431        O  0.07994421  0.09356710  0.01569606    -0.55000
O432        O  0.14722240  0.05746581  0.04762487    -0.74300
C433        C  0.18120097  0.06167987  0.04718119     0.98000
O434        O  0.24101873  0.14764700  0.12666382    -0.63100
O435        O  0.12173925  0.25453546  0.07119938    -0.57900
O436        O  0.20732655  0.15313325  0.05872273    -0.94600
O437        O  0.16524091  0.19135949  0.03550964    -0.93100
O438        O  0.14141772  0.26419394  0.14929621    -0.93400
O439        O  0.18737193  0.22692763  0.19232595    -0.92200
C440        C  0.19577734  0.17606302  0.03494817     1.16900
H441        H  0.07591342  0.22776695  0.12447630     0.32800
H442        H  0.17768742  0.14173620  0.18804569     0.43700
H443        H  0.14527577  0.12681061  0.04359382     0.37200
H444        H  0.05251252  0.07955555  0.14144195     0.33700
H445        H  0.11259571  0.19821358  0.24507389     0.25500
H446        H  0.09004125  0.02368580  0.17497897     0.31400
H447        H  0.11110324  0.01535703  0.11251358     0.37300
H448        H  0.16287844  0.26282348  0.13468664     0.31800
H449        H  0.14744093  0.25693122  0.06780057     0.30600
H450        H  0.10968187  0.21659306  0.99757278     0.32300
H451        H  0.10173986  0.08862929  0.00244010     0.31300
H452        H  0.20495755  0.20841639  0.18595020     0.35300
H453        H  0.24055689  0.17404273  0.12073685     0.28000
H454        H  0.97181804  0.14805546  0.15980813     0.32200
H455        H  0.04856741  0.03489787  0.04274365     0.35100
H456        H  0.11117572  0.26417914  0.04856850     0.27700
H457        H  0.24270561  0.14655212  0.15314430     0.40600
H458        H  0.13852905  0.07358439  0.25096928     0.30600
H459        H  0.14698789  0.17531763  0.24173672     0.38300
H460        H  0.07654859  0.12018448  0.01296794     0.30100
H461        H  0.10250714  0.02772265  0.21492201     0.30200
H462        H  0.98181665  0.11471070  0.13629869     0.30400
Zr463      Zr  0.31887576  0.87466014  0.63901723     2.17500
O464        O  0.26445314  0.84424822  0.65639973    -0.51900
O465        O  0.29588910  0.91475278  0.59125854    -0.75100
O466        O  0.29459606  0.92355796  0.67985657    -0.81900
O467        O  0.34465470  0.82327495  0.55756330    -0.83700
O468        O  0.32445428  0.91729946  0.73247343    -0.79300
O469        O  0.29651875  0.85026099  0.58156997    -0.90900
O470        O  0.34415381  0.94860973  0.57689419    -0.76900
O471        O  0.35524054  0.92260708  0.66014760    -0.86400
O472        O  0.36489897  0.88171719  0.59607618    -0.86100
O473        O  0.34367214  0.85150472  0.69502756    -0.72800
O474        O  0.35305436  0.81852039  0.63675139    -0.85000
Zr475      Zr  0.46016231  0.85674101  0.67153010     2.26400
Zr476      Zr  0.38135737  0.89962761  0.71488625     2.06300
Zr477      Zr  0.39918459  0.82793862  0.59409119     2.10000
Zr478      Zr  0.39761922  0.93189688  0.61503000     1.78800
O479        O  0.39403188  0.76304248  0.58281072    -0.93800
O480        O  0.38429716  0.99313799  0.63504227    -0.41600
O481        O  0.43453545  0.87792948  0.61438666    -0.78200
O482        O  0.42546388  0.91214641  0.67116765    -0.96900
O483        O  0.41582450  0.84534966  0.71480736    -0.90200
O484        O  0.42405923  0.80804724  0.64983693    -0.93000
C485        C  0.31137015  0.93886099  0.57170029     1.00700
C486        C  0.31181996  0.83281404  0.55645878     1.13700
C487        C  0.30096330  0.93263760  0.71313067     1.04400
O488        O  0.38400999  0.96418149  0.72851325    -0.95200
O489        O  0.42938247  0.91616707  0.75247000    -0.90900
O490        O  0.47754283  0.89305830  0.72561149    -0.84100
C491        C  0.46243406  0.91221722  0.75002006     1.11100
O492        O  0.32919637  0.76212829  0.71327980    -0.97200
Zr493      Zr  0.37956560  0.79764346  0.69258845     1.88900
O494        O  0.48201597  0.79987091  0.70116983    -0.73800
O495        O  0.37104602  0.87986191  0.77660782    -0.53100
O496        O  0.37220223  0.79622588  0.75737232    -0.97700
O497        O  0.37012750  0.73864484  0.66493667    -0.55000
O498        O  0.43337484  0.76526548  0.71180090    -0.74300
C499        C  0.46701469  0.77032622  0.71259381     0.98000
O500        O  0.51856125  0.88376917  0.66541311    -0.63100
O501        O  0.41495135  0.84119915  0.53210119    -0.57900
O502        O  0.49940168  0.82724809  0.62851049    -0.94600
O503        O  0.46135047  0.81147489  0.58370721    -0.93100
O504        O  0.42145218  0.93871870  0.55513648    -0.93400
O505        O  0.44775918  0.97326316  0.61141481    -0.92200
C506        C  0.49265669  0.81265034  0.59798433     1.16900
H507        H  0.35659804  0.88623517  0.57193969     0.32800
H508        H  0.44018835  0.93198776  0.67930461     0.43700
H509        H  0.43753226  0.78619703  0.64613151     0.37200
H510        H  0.32503228  0.84740587  0.71197347     0.33700
H511        H  0.38229333  0.00793695  0.61267289     0.25500
H512        H  0.36579718  0.90243521  0.78967688     0.31400
H513        H  0.39585996  0.79064967  0.76747149     0.37300
H514        H  0.40975343  0.91937006  0.54108828     0.31800
H515        H  0.43695307  0.85572030  0.53354585     0.30600
H516        H  0.39727436  0.76090171  0.55666067     0.32300
H517        H  0.39343479  0.73179018  0.65574731     0.31300
H518        H  0.46783636  0.95907974  0.62143619     0.35300
H519        H  0.51524945  0.91018923  0.66892795     0.28000
H520        H  0.25859353  0.82764946  0.63648860     0.32200
H521        H  0.33921341  0.74157733  0.72759263     0.35100
H522        H  0.42221914  0.81752766  0.52230419     0.27700
H523        H  0.53215914  0.87524626  0.68680353     0.40600
H524        H  0.39917005  0.97517415  0.70987885     0.30600
H525        H  0.35992152  0.99177784  0.64399506     0.38300
H526        H  0.35563804  0.74386255  0.64317599     0.30100
H527        H  0.34848733  0.86627888  0.77594749     0.30200
H528        H  0.24637969  0.86354187  0.65460740     0.30400
Zr529      Zr  0.14283778  0.89215787  0.45379206     2.17500
O530        O  0.12497433  0.91415650  0.51203931    -0.51900
O531        O  0.19185985  0.85477880  0.47604685    -0.75100
O532        O  0.09783772  0.84597143  0.47608360    -0.81900
O533        O  0.21624781  0.95774290  0.43784265    -0.83700
O534        O  0.09035907  0.81039249  0.42889255    -0.79300
O535        O  0.19368596  0.92276488  0.48314183    -0.90900
O536        O  0.21438892  0.83158530  0.42509480    -0.76900
O537        O  0.13398485  0.84376434  0.41288358    -0.86400
O538        O  0.18768413  0.89683767  0.40945890    -0.86100
O539        O  0.08609182  0.90524500  0.42585606    -0.72800
O540        O  0.13724724  0.95132008  0.42320419    -0.85000
Zr541      Zr  0.11613756  0.91529307  0.30963246     2.26400
Zr542      Zr  0.07822293  0.85635596  0.38461946     2.06300
Zr543      Zr  0.18315063  0.95402717  0.37963729     2.10000
Zr544      Zr  0.17950371  0.84788140  0.37058722     1.78800
O545        O  0.18310944  0.01893550  0.39210087    -0.93800
O546        O  0.17026729  0.78236830  0.37703336    -0.41600
O547        O  0.17321022  0.90506325  0.33858227    -0.78200
O548        O  0.12337131  0.85730298  0.34070388    -0.96900
O549        O  0.07080125  0.91301299  0.35284670    -0.90200
O550        O  0.12746852  0.96413772  0.35029429    -0.93000
C551        C  0.21544580  0.83713531  0.45929498     1.00700
C552        C  0.21714074  0.94488644  0.47053900     1.13700
C553        C  0.08272158  0.81831690  0.46061257     1.04400
O554        O  0.04691823  0.79895490  0.37604039    -0.95200
O555        O  0.04928075  0.83848302  0.33110274    -0.90900
O556        O  0.07020325  0.87207551  0.28445591    -0.84100
C557        C  0.05008194  0.84666545  0.29796803     1.11100
O558        O  0.05494138  0.98287307  0.44756173    -0.97200
Zr559      Zr  0.08150233  0.96214385  0.39245522     1.88900
O560        O  0.07730118  0.96613114  0.28946898    -0.73800
O561        O  0.02170103  0.86951264  0.41148131    -0.53100
O562        O  0.01790556  0.95287212  0.39124409    -0.97700
O563        O  0.09642485  0.02557817  0.40398887    -0.55000
O564        O  0.05999066  0.99636719  0.33891243    -0.74300
C565        C  0.06091840  0.99240664  0.30464364     0.98000
O566        O  0.13230927  0.89347556  0.25079639    -0.63100
O567        O  0.24570881  0.95493190  0.36613900    -0.57900
O568        O  0.15785248  0.95492000  0.27676733    -0.94600
O569        O  0.19691533  0.97652681  0.31852246    -0.93100
O570        O  0.23955306  0.85894208  0.35101122    -0.93400
O571        O  0.19213934  0.81275544  0.31758180    -0.92200
C572        C  0.18504865  0.97410340  0.28592544     1.16900
H573        H  0.21122807  0.89561477  0.41939163     0.32800
H574        H  0.11970279  0.83763230  0.32412953     0.43700
H575        H  0.12801513  0.98730007  0.33778676     0.37200
H576        H  0.06831407  0.90456484  0.44409029     0.33700
H577        H  0.19425824  0.77201722  0.37903740     0.25500
H578        H  0.00559738  0.87401128  0.39076988     0.31400
H579        H  0.00796953  0.97567393  0.38088597     0.37300
H580        H  0.25325566  0.86373587  0.37324615     0.31800
H581        H  0.25392626  0.97949394  0.37307537     0.30600
H582        H  0.20617426  0.02366677  0.40393034     0.32300
H583        H  0.07472570  0.03936303  0.39798037     0.31300
H584        H  0.18705630  0.82966711  0.29723250     0.35300
H585        H  0.13293771  0.86658575  0.25337880     0.28000
H586        H  0.11273804  0.89345640  0.52386067     0.32200
H587        H  0.03838142  0.00243313  0.44012758     0.35100
H588        H  0.25682316  0.93818757  0.38399496     0.27700
H589        H  0.11170683  0.89860339  0.23495793     0.40600
H590        H  0.06519185  0.78113481  0.36958658     0.30600
H591        H  0.16041863  0.77873745  0.40124624     0.38300
H592        H  0.11295390  0.03264691  0.38481885     0.30100
H593        H  0.01363626  0.84596858  0.42182040     0.30200
H594        H  0.10611772  0.93194771  0.50635767     0.30400
C595        C  0.00107046  0.80619773  0.51182356     0.79600
N596        N  0.98707521  0.77482187  0.49906889    -0.78700
C597        C  0.00426829  0.75538347  0.47454353     0.82100
N598        N  0.03615295  0.76856008  0.46220710    -0.78600
C599        C  0.05107580  0.79972436  0.47624210     0.82200
N600        N  0.03303183  0.81799622  0.50092674    -0.80300
C601        C  0.28630515  0.00794791  0.50230477     0.79600
N602        N  0.30183332  0.99044870  0.53052186    -0.78700
C603        C  0.29094560  0.95677383  0.54107740     0.82100
N604        N  0.26264357  0.94081096  0.52299047    -0.78600
C605        C  0.24697697  0.95886531  0.49395220     0.82200
N606        N  0.25955850  0.99196405  0.48428805    -0.80300
C607        C  0.28999304  0.77638157  0.47889317     0.79600
N608        N  0.30513363  0.79077645  0.50828414    -0.78700
C609        C  0.29167554  0.82030970  0.52414689     0.82100
N610        N  0.26148750  0.83602297  0.50980875    -0.78600
C611        C  0.24630552  0.82150693  0.47920663     0.82200
N612        N  0.26090215  0.79188340  0.46446859    -0.80300
C613        C  0.00725677  0.79962250  0.22085134     0.79600
N614        N  0.02617207  0.82464554  0.23970584    -0.78700
C615        C  0.02665684  0.82280139  0.27585631     0.82100
N616        N  0.00796313  0.79551356  0.29241404    -0.78600
C617        C  0.98882446  0.77028687  0.27357860     0.82200
N618        N  0.98899021  0.77238363  0.23756056    -0.80300
C619        C  0.23817169  0.00682622  0.73602809     0.79600
N620        N  0.25352476  0.97906267  0.71821927    -0.78700
C621        C  0.28305704  0.96328122  0.73169378     0.82100
N622        N  0.29722836  0.97624172  0.76312864    -0.78600
C623        C  0.28213829  0.00419672  0.78132524     0.82200
N624        N  0.25240451  0.01926277  0.76741395    -0.80300
C625        C  0.74091938  0.23052754  0.03531222     0.79600
N626        N  0.71465076  0.24063231  0.01228394    -0.78700
C627        C  0.71081750  0.27610225  0.00285037     0.82100
N628        N  0.73369848  0.30155831  0.01711896    -0.78600
C629        C  0.76056431  0.29083180  0.03986246     0.82200
N630        N  0.76369191  0.25528052  0.04865400    -0.80300
C631        C  0.48976511  0.68942745  0.76942748     0.79600
N632        N  0.47270166  0.71824981  0.75404703    -0.78700
C633        C  0.48844063  0.73972212  0.72896443     0.82100
N634        N  0.52259983  0.73221807  0.71999307    -0.78600
C635        C  0.53973844  0.70257766  0.73534026     0.82200
N636        N  0.52288249  0.68154510  0.75949948    -0.80300
C637        C  0.53524290  0.77700940  0.51796536     0.79600
N638        N  0.56525870  0.76116015  0.53015637    -0.78700
C639        C  0.57486401  0.76394271  0.56503099     0.82100
N640        N  0.55255759  0.78164987  0.58827129    -0.78600
C641        C  0.52144479  0.79679135  0.57561023     0.82200
N642        N  0.51378033  0.79431784  0.54036808    -0.80300
C643        C  0.83214756  0.76042866  0.56240464     0.79600
N644        N  0.80146742  0.74674075  0.57438695    -0.78700
C645        C  0.78146882  0.72370124  0.55486126     0.82100
N646        N  0.79334347  0.71299678  0.52182070    -0.78600
C647        C  0.82495879  0.72682922  0.50939104     0.82200
N648        N  0.84365799  0.75020146  0.53000748    -0.80300
C649        C  0.52031243  0.48805642  0.73784784     0.79600
N650        N  0.53588999  0.46680863  0.76336835    -0.78700
C651        C  0.56907863  0.47388645  0.77509691     0.82100
N652        N  0.58700013  0.50333141  0.76066063    -0.78600
C653        C  0.57139546  0.52426619  0.73378391     0.82200
N654        N  0.53817630  0.51626026  0.72303773    -0.80300
C655        C  0.76221447  0.48238682  0.75374143     0.79600
N656        N  0.74468495  0.46348118  0.77886988    -0.78700
C657        C  0.71169141  0.47290149  0.78753753     0.82100
N658        N  0.69613761  0.50276326  0.77139069    -0.78600
C659        C  0.71421562  0.52208613  0.74582478     0.82200
N660        N  0.74699374  0.51128880  0.73703965    -0.80300
C661        C  0.78004364  0.53624108  0.50191746     0.79600
N662        N  0.80722981  0.55455588  0.48749181    -0.78700
C663        C  0.81072776  0.59091131  0.49122913     0.82100
N664        N  0.78569491  0.60965272  0.50998427    -0.78600
C665        C  0.75800992  0.59069401  0.52514042     0.82200
N666        N  0.75573615  0.55420072  0.52070062    -0.80300
C667        C  0.77807060  0.53882156  0.24609912     0.79600
N668        N  0.79653750  0.56592933  0.26165990    -0.78700
C669        C  0.83198372  0.56813944  0.25868697     0.82100
N670        N  0.84939129  0.54148653  0.24023030    -0.78600
C671        C  0.83015480  0.51411590  0.22409087     0.82200
N672        N  0.79488189  0.51335863  0.22744795    -0.80300
Zr673      Zr  0.12131890  0.32520285  0.61362015     2.17500
O674        O  0.14711103  0.26820402  0.63515382    -0.51900
O675        O  0.06939749  0.30208896  0.58180001    -0.75100
O676        O  0.07239416  0.29653612  0.64664495    -0.81900
O677        O  0.20629249  0.33853751  0.57150672    -0.83700
O678        O  0.04743698  0.34246574  0.67780654    -0.79300
O679        O  0.15892214  0.30333207  0.56307207    -0.90900
O680        O  0.04238884  0.35349470  0.56066468    -0.76900
O681        O  0.07480500  0.36827261  0.61639918    -0.86400
O682        O  0.12716800  0.36704057  0.56427724    -0.86100
O683        O  0.12663408  0.35581913  0.67089853    -0.72800
O684        O  0.17658468  0.35572510  0.62524688    -0.85000
Zr685      Zr  0.14283750  0.47217947  0.63018985     2.26400
Zr686      Zr  0.07990524  0.39963174  0.67102869     2.06300
Zr687      Zr  0.18205674  0.39728568  0.57568383     2.10000
Zr688      Zr  0.07949720  0.40836799  0.56730521     1.78800
O689        O  0.23921847  0.39035210  0.54775009    -0.93800
O690        O  0.01993132  0.43038065  0.57637986    -0.41600
O691        O  0.13492128  0.44022427  0.57460584    -0.78200
O692        O  0.08581652  0.44217653  0.62162841    -0.96900
O693        O  0.13446920  0.43105961  0.68013706    -0.90200
O694        O  0.18957486  0.42923078  0.63135526    -0.93000
C695        C  0.04342268  0.31871360  0.56640350     1.00700
C696        C  0.19005327  0.31452960  0.55382255     1.13700
C697        C  0.04867558  0.30925315  0.66742158     1.04400
O698        O  0.01621902  0.40698099  0.67305641    -0.95200
O699        O  0.06460171  0.45967077  0.69127102    -0.90900
O700        O  0.09880901  0.50400749  0.66593452    -0.84100
C701        C  0.07364672  0.49307927  0.68632738     1.11100
O702        O  0.20949708  0.33521262  0.70750309    -0.97200
Zr703      Zr  0.18104009  0.38858090  0.68045997     1.88900
O704        O  0.18165960  0.49456856  0.67928149    -0.73800
O705        O  0.08187575  0.38982707  0.73571737    -0.53100
O706        O  0.16505204  0.37677767  0.74257730    -0.97700
O707        O  0.24462588  0.38489353  0.67275025    -0.55000
O708        O  0.20102648  0.44441611  0.71015286    -0.74300
C709        C  0.19891473  0.47920887  0.70548490     0.98000
O710        O  0.13395501  0.53622863  0.61458845    -0.63100
O711        O  0.16945809  0.40764954  0.51192081    -0.57900
O712        O  0.17923655  0.49143377  0.57604892    -0.94600
O713        O  0.21976478  0.44789187  0.57498892    -0.93100
O714        O  0.07976429  0.39618982  0.50323845    -0.93400
O715        O  0.06855895  0.46056943  0.52768170    -0.92200
C716        C  0.20678241  0.47667508  0.56193409     1.16900
H717        H  0.12641480  0.35516754  0.54138673     0.32800
H718        H  0.06718839  0.45994743  0.62163801     0.43700
H719        H  0.21196764  0.44122733  0.63524413     0.37200
H720        H  0.12345028  0.33837562  0.69010179     0.33700
H721        H  0.00799546  0.42788699  0.55276044     0.25500
H722        H  0.09727175  0.40955855  0.74476139     0.31400
H723        H  0.16314780  0.40112449  0.75334619     0.37300
H724        H  0.07706412  0.36946560  0.50117822     0.31800
H725        H  0.16849787  0.38312229  0.50131820     0.30600
H726        H  0.23501056  0.39346825  0.52163377     0.32300
H727        H  0.25422202  0.40825361  0.68158604     0.31300
H728        H  0.07646640  0.48181615  0.54173506     0.35300
H729        H  0.15776766  0.54730415  0.61533387     0.28000
H730        H  0.13009675  0.24925660  0.62754255     0.32200
H731        H  0.22444390  0.34451692  0.72736340     0.35100
H732        H  0.14502962  0.41678709  0.51020998     0.27700
H733        H  0.12697381  0.53658638  0.58890462     0.40600
H734        H  0.01098692  0.42818279  0.65717625     0.30600
H735        H  0.00879064  0.41146317  0.59170948     0.38300
H736        H  0.24813213  0.38598478  0.64651239     0.30100
H737        H  0.05802587  0.39653572  0.74364992     0.30200
H738        H  0.14491756  0.26897563  0.66153711     0.30400
Zr739      Zr  0.62535780  0.19354072  0.40366794     2.17500
O740        O  0.65238922  0.24911411  0.38023889    -0.51900
O741        O  0.57911587  0.22422397  0.43621497    -0.75100
O742        O  0.58100560  0.22412830  0.36447887    -0.81900
O743        O  0.70082628  0.17203858  0.47494545    -0.83700
O744        O  0.55340683  0.17919337  0.33296432    -0.79300
O745        O  0.67324792  0.21860143  0.44499277    -0.90900
O746        O  0.54402367  0.17795544  0.45604055    -0.76900
O747        O  0.57440895  0.15537768  0.39762774    -0.86400
O748        O  0.62208978  0.15554253  0.45589939    -0.86100
O749        O  0.63059989  0.15887185  0.34891927    -0.72800
O750        O  0.67676034  0.15592166  0.40164955    -0.85000
Zr751      Zr  0.63132382  0.04466103  0.39668976     2.26400
Zr752      Zr  0.57967796  0.11968006  0.34543375     2.06300
Zr753      Zr  0.67312883  0.11786782  0.45401350     2.10000
Zr754      Zr  0.57103692  0.11806759  0.44922130     1.78800
O755        O  0.73651095  0.10801444  0.45655514    -0.93800
O756        O  0.50859921  0.10847738  0.43636438    -0.41600
O757        O  0.62219452  0.08004947  0.44949607    -0.78200
O758        O  0.57763215  0.08051283  0.39746566    -0.96900
O759        O  0.63121668  0.08363766  0.34486776    -0.90200
O760        O  0.68221846  0.08313832  0.40095539    -0.93000
C761        C  0.55092612  0.21199680  0.45080782     1.00700
C762        C  0.69701689  0.20579902  0.46757868     1.13700
C763        C  0.55736149  0.21270249  0.34203218     1.04400
O764        O  0.51639666  0.10898025  0.34214035    -0.95200
O765        O  0.56834512  0.05949110  0.31960799    -0.90900
O766        O  0.59526893  0.01347658  0.35127309    -0.84100
C767        C  0.57547055  0.02549642  0.32537211     1.11100
O768        O  0.71834410  0.17154466  0.32889075    -0.97200
Zr769      Zr  0.68174944  0.12046769  0.34818723     1.88900
O770        O  0.66067652  0.01477775  0.34776108    -0.73800
O771        O  0.58512181  0.13140460  0.28133893    -0.53100
O772        O  0.67395174  0.13573061  0.28479903    -0.97700
O773        O  0.74485850  0.10942047  0.35348831    -0.55000
O774        O  0.68756995  0.06149446  0.31807687    -0.74300
C775        C  0.67855348  0.02763054  0.32155689     0.98000
O776        O  0.60649158  0.99051990  0.42529767    -0.63100
O777        O  0.66701025  0.12040900  0.51887684    -0.57900
O778        O  0.67874373  0.01985713  0.43795393    -0.94600
O779        O  0.67575707  0.05960548  0.48274463    -0.93100
O780        O  0.57626719  0.12319513  0.51407723    -0.93400
O781        O  0.54449290  0.06800502  0.48298359    -0.92200
C782        C  0.68932653  0.03184304  0.46881476     1.16900
H783        H  0.62143004  0.16971781  0.47732301     0.32800
H784        H  0.55745630  0.06435756  0.39555267     0.43700
H785        H  0.70389856  0.06953788  0.40236105     0.37200
H786        H  0.63079781  0.17533421  0.32857319     0.33700
H787        H  0.49643706  0.11734825  0.45780927     0.25500
H788        H  0.60383509  0.11463478  0.27378856     0.31400
H789        H  0.69432709  0.12449594  0.27305569     0.37300
H790        H  0.56333717  0.14567800  0.51973023     0.31800
H791        H  0.69108130  0.11664852  0.52864310     0.30600
H792        H  0.74671094  0.12852149  0.44255260     0.32300
H793        H  0.74728493  0.08264718  0.35575293     0.31300
H794        H  0.55355909  0.04578070  0.47168639     0.35300
H795        H  0.62339214  0.97086593  0.42023227     0.28000
H796        H  0.63535103  0.26864565  0.38528665     0.32200
H797        H  0.71032894  0.19225822  0.34329195     0.35100
H798        H  0.66133522  0.14596751  0.52441056     0.27700
H799        H  0.60934250  0.99475960  0.45131088     0.40600
H800        H  0.51093558  0.10692970  0.31621558     0.30600
H801        H  0.50277650  0.12666675  0.41733871     0.38300
H802        H  0.75167492  0.11864398  0.37738545     0.30100
H803        H  0.56322969  0.12134370  0.27060546     0.30200
H804        H  0.65135076  0.24654516  0.35388517     0.30400
C805        C  0.49343697  0.25094409  0.51771413     0.79600
N806        N  0.51766475  0.23089725  0.50112798    -0.78700
C807        C  0.52580587  0.23757799  0.46656516     0.82100
N808        N  0.50824898  0.26455610  0.44762778    -0.78600
C809        C  0.48295875  0.28452914  0.46448739     0.82200
N810        N  0.47619981  0.27764320  0.49954476    -0.80300
Zr811      Zr  0.44498250  0.38368970  0.38743412     2.17500
O812        O  0.49388661  0.41159437  0.42004688    -0.51900
O813        O  0.47528732  0.33659335  0.35424305    -0.75100
O814        O  0.47196769  0.33485298  0.42405951    -0.81900
O815        O  0.43023966  0.45707538  0.31321317    -0.83700
O816        O  0.42628533  0.30788956  0.45363623    -0.79300
O817        O  0.47413118  0.42802578  0.34418235    -0.90900
O818        O  0.43106313  0.30372360  0.32834072    -0.76900
O819        O  0.40652578  0.33197782  0.39026903    -0.86400
O820        O  0.40990793  0.38372773  0.33418727    -0.86100
O821        O  0.40848551  0.38816025  0.44043307    -0.72800
O822        O  0.41055241  0.43833874  0.39090421    -0.85000
Zr823      Zr  0.30029151  0.39456802  0.38709685     2.26400
Zr824      Zr  0.36922917  0.33667693  0.44056121     2.06300
Zr825      Zr  0.37577056  0.43788559  0.33737365     2.10000
Zr826      Zr  0.37291561  0.33131237  0.33709708     1.78800
O827        O  0.38405800  0.50369326  0.33790621    -0.93800
O828        O  0.36460029  0.26714544  0.35267670    -0.41600
O829        O  0.33794221  0.38594971  0.33672016    -0.78200
O830        O  0.33361851  0.33791954  0.38672297    -0.96900
O831        O  0.33503145  0.39094426  0.44126008    -0.90200
O832        O  0.33879754  0.44599502  0.38782931    -0.93000
C833        C  0.46385952  0.30955159  0.33588095     1.00700
C834        C  0.46267935  0.45130697  0.31992893     1.13700
C835        C  0.45915189  0.31058598  0.44555518     1.04400
O836        O  0.35868366  0.27113746  0.44118762    -0.95200
O837        O  0.31005835  0.32366858  0.46347573    -0.90900
O838        O  0.26853985  0.35498204  0.43071599    -0.84100
C839        C  0.27782087  0.33221356  0.45592103     1.11100
O840        O  0.42115485  0.47631461  0.46903446    -0.97200
Zr841      Zr  0.37280485  0.44204612  0.44211022     1.88900
O842        O  0.27229098  0.43758975  0.42783669    -0.73800
O843        O  0.37894792  0.33929133  0.50512173    -0.53100
O844        O  0.38062768  0.42827739  0.50581263    -0.97700
O845        O  0.36986187  0.50825573  0.43743321    -0.55000
O846        O  0.31506658  0.45517211  0.46738013    -0.74300
C847        C  0.28273141  0.45358699  0.45667387     0.98000
O848        O  0.24532046  0.37186850  0.36116028    -0.63100
O849        O  0.36899469  0.43086295  0.27274281    -0.57900
O850        O  0.27947743  0.42906941  0.33058419    -0.94600
O851        O  0.32476855  0.46492668  0.31221704    -0.93100
O852        O  0.38009075  0.33773172  0.27256856    -0.93400
O853        O  0.32667186  0.30136393  0.30238295    -0.92200
C854        C  0.29345499  0.45313523  0.30874767     1.16900
H855        H  0.42419748  0.38341990  0.31301240     0.32800
H856        H  0.31739959  0.31770502  0.38699859     0.43700
H857        H  0.32588496  0.46863893  0.38596370     0.37200
H858        H  0.42342599  0.38705323  0.46160141     0.33700
H859        H  0.37495466  0.25378789  0.33258716     0.25500
H860        H  0.36085263  0.35636013  0.51344219     0.31400
H861        H  0.37137929  0.44987949  0.51805527     0.37300
H862        H  0.38789635  0.31344663  0.26478198     0.31800
H863        H  0.39189269  0.42159380  0.26462205     0.30600
H864        H  0.40404971  0.50784470  0.35471843     0.32300
H865        H  0.34469313  0.51382102  0.43294437     0.31300
H866        H  0.30550603  0.30289534  0.31742221     0.35300
H867        H  0.24687033  0.34499234  0.36329000     0.28000
H868        H  0.51382645  0.39466184  0.41729945     0.32200
H869        H  0.44264349  0.46455558  0.46011209     0.35100
H870        H  0.35255645  0.41010183  0.26967714     0.27700
H871        H  0.22683530  0.37875502  0.37815254     0.40600
H872        H  0.33593554  0.26763251  0.42834952     0.30600
H873        H  0.38110490  0.26261317  0.37303598     0.38300
H874        H  0.38147436  0.51454580  0.41460334     0.30100
H875        H  0.37116755  0.31513933  0.51424401     0.30200
H876        H  0.48752055  0.40917710  0.44562334     0.30400
C877        C  0.54063812  0.50164890  0.28365226     0.79600
N878        N  0.52554381  0.52247184  0.25702448    -0.78700
C879        C  0.49079012  0.51932272  0.24994876     0.82100
N880        N  0.47150671  0.49555656  0.27045055    -0.78600
C881        C  0.48627051  0.47466353  0.29734052     0.82200
N882        N  0.52135215  0.47752232  0.30357207    -0.80300
C883        C  0.52551692  0.70411827  0.00499043     0.79600
N884        N  0.54055264  0.73669101  0.01306965    -0.78700
C885        C  0.53909319  0.74918413  0.04700148     0.82100
N886        N  0.52095400  0.72934026  0.07240980    -0.78600
C887        C  0.50681365  0.69610358  0.06443791     0.82200
N888        N  0.50881686  0.68435150  0.03048468    -0.80300
Zr889      Zr  0.31998482  0.58902922  0.12642677     2.17500
O890        O  0.26355709  0.60724423  0.15037209    -0.51900
O891        O  0.29662864  0.55978741  0.07270164    -0.75100
O892        O  0.29294284  0.63094973  0.08216477    -0.81900
O893        O  0.33825178  0.51902401  0.20279545    -0.83700
O894        O  0.33669273  0.66683784  0.05934059    -0.79300
O895        O  0.29343007  0.54262646  0.16894244    -0.90900
O896        O  0.34517745  0.54532896  0.04104156    -0.76900
O897        O  0.36091553  0.60075065  0.07956283    -0.86400
O898        O  0.35922076  0.53859105  0.12491687    -0.86100
O899        O  0.34908422  0.64656372  0.13865521    -0.72800
O900        O  0.35113344  0.59082365  0.18277545    -0.85000
Zr901      Zr  0.46198967  0.60745031  0.15092507     2.26400
Zr902      Zr  0.39155995  0.65586837  0.09224848     2.06300
Zr903      Zr  0.39189189  0.54179383  0.17973333     2.10000
Zr904      Zr  0.39984797  0.55137402  0.07851992     1.78800
O905        O  0.38708526  0.51911884  0.24144958    -0.93800
O906        O  0.41807845  0.56884797  0.01805657    -0.41600
O907        O  0.42857778  0.55681079  0.13398684    -0.78200
O908        O  0.43235227  0.60600770  0.09253125    -0.96900
O909        O  0.42183294  0.65753582  0.14883415    -0.90200
O910        O  0.41992673  0.59749809  0.19642936    -0.93000
C911        C  0.31144498  0.54896936  0.04404412     1.00700
C912        C  0.30574929  0.52216593  0.19510862     1.13700
C913        C  0.30464444  0.65556058  0.06032131     1.04400
O914        O  0.40163509  0.66673750  0.02865999    -0.95200
O915        O  0.44877036  0.68280553  0.07951484    -0.90900
O916        O  0.49190249  0.65218109  0.11063684    -0.84100
C917        C  0.48121680  0.67677639  0.08771320     1.11100
O918        O  0.32914250  0.66333180  0.22922062    -0.97200
Zr919      Zr  0.38068016  0.64743456  0.19491727     1.88900
O920        O  0.48239564  0.65862624  0.18855966    -0.73800
O921        O  0.37986572  0.71961956  0.10437942    -0.53100
O922        O  0.36230030  0.71040558  0.18570546    -0.97700
O923        O  0.38235535  0.63272119  0.25892896    -0.55000
O924        O  0.43347101  0.68022645  0.21522463    -0.74300
C925        C  0.46682957  0.68085121  0.20948226     0.98000
O926        O  0.51957842  0.58296583  0.13677425    -0.63100
O927        O  0.40240752  0.48048134  0.15842942    -0.57900
O928        O  0.48590538  0.56655820  0.20152040    -0.94600
O929        O  0.44225294  0.52622133  0.21383876    -0.93100
O930        O  0.39408063  0.48522277  0.08107524    -0.93400
O931        O  0.44878583  0.51861160  0.05294419    -0.92200
C932        C  0.47275231  0.53901772  0.21953333     1.16900
H933        H  0.34680086  0.51572513  0.12204670     0.32800
H934        H  0.44940118  0.60977560  0.07392668     0.43700
H935        H  0.43060992  0.59603220  0.22007072     0.37200
H936        H  0.33203436  0.66584386  0.13775249     0.33700
H937        H  0.40174965  0.55594525  0.00159150     0.25500
H938        H  0.40324996  0.73038877  0.10983060     0.31400
H939        H  0.38442995  0.72418450  0.18197415     0.37300
H940        H  0.37643261  0.47945475  0.06215596     0.31800
H941        H  0.41846714  0.46924658  0.17656623     0.30600
H942        H  0.38992769  0.49233830  0.24046292     0.32300
H943        H  0.40758513  0.63264000  0.26602954     0.31300
H944        H  0.46827352  0.52166496  0.07055240     0.35300
H945        H  0.51881978  0.57999618  0.11045700     0.28000
H946        H  0.24670732  0.60580474  0.12993264     0.32200
H947        H  0.30982425  0.64862398  0.21863978     0.35100
H948        H  0.37971072  0.46761831  0.16185140     0.27700
H949        H  0.53631172  0.60333501  0.14076905     0.40600
H950        H  0.39846214  0.69329908  0.02502287     0.30600
H951        H  0.41152625  0.59479367  0.01528766     0.38300
H952        H  0.37498171  0.60684450  0.26059555     0.30100
H953        H  0.37300129  0.73041794  0.08081888     0.30200
H954        H  0.26623300  0.63362593  0.15483023     0.30400
C955        C  0.24004611  0.53619396  0.48818206     0.79600
N956        N  0.22341510  0.52508671  0.51845426    -0.78700
C957        C  0.22306674  0.48932085  0.52779362     0.82100
N958        N  0.24119206  0.46502350  0.50718807    -0.78600
C959        C  0.25747563  0.47634930  0.47644712     0.82200
N960        N  0.25686716  0.51202818  0.46766263    -0.80300
Zr961      Zr  0.61932004  0.85085773  0.06390521     2.17500
O962        O  0.58281435  0.87686671  0.01589567    -0.51900
O963        O  0.66713336  0.82577494  0.03078366    -0.75100
O964        O  0.66215140  0.89003163  0.03168953    -0.81900
O965        O  0.54190655  0.80041428  0.08300500    -0.83700
O966        O  0.68926923  0.91820099  0.07847576    -0.79300
O967        O  0.58331325  0.79780936  0.04187997    -0.90900
O968        O  0.70239884  0.79955131  0.07382144    -0.76900
O969        O  0.67120530  0.85580862  0.10049026    -0.86400
O970        O  0.62453714  0.79624360  0.09986180    -0.86100
O971        O  0.61409874  0.90492347  0.10040626    -0.72800
O972        O  0.56904991  0.85172823  0.10222424    -0.85000
Zr973      Zr  0.61709778  0.85314214  0.21112989     2.26400
Zr974      Zr  0.66611103  0.90667053  0.13790189     2.06300
Zr975      Zr  0.57414365  0.79733274  0.13768619     2.10000
Zr976      Zr  0.67692022  0.80226883  0.13486203     1.78800
O977        O  0.51267442  0.78449348  0.15104786    -0.93800
O978        O  0.73975147  0.81460759  0.14144683    -0.41600
O979        O  0.62657788  0.80148721  0.17336267    -0.78200
O980        O  0.67006178  0.85290088  0.17485095    -0.96900
O981        O  0.61550588  0.90658594  0.17417649    -0.90200
O982        O  0.56519416  0.84964131  0.17426936    -0.93000
C983        C  0.69539773  0.80959820  0.04100414     1.00700
C984        C  0.55511357  0.78483760  0.05654583     1.13700
C985        C  0.68581212  0.91156605  0.04482117     1.04400
O986        O  0.72947812  0.90419287  0.14872442    -0.95200
O987        O  0.67736457  0.93361050  0.19613351    -0.90900
O988        O  0.65228812  0.90093272  0.24163992    -0.84100
C989        C  0.67099010  0.92782283  0.22954580     1.11100
O990        O  0.52349412  0.92282738  0.09083142    -0.97200
Zr991      Zr  0.56388465  0.90438231  0.13904045     1.88900
O992        O  0.58547397  0.90135198  0.24207613    -0.73800
O993        O  0.66645702  0.97258294  0.12897859    -0.53100
O994        O  0.57116566  0.96883190  0.12442278    -0.97700
O995        O  0.50163469  0.89818765  0.15320711    -0.55000
O996        O  0.55902993  0.93433753  0.19718097    -0.74300
C997        C  0.56760483  0.92893160  0.23042077     0.98000
O998        O  0.64219999  0.82264638  0.26397642    -0.63100
O999        O  0.57797003  0.73337211  0.12142159    -0.57900
O1000       O  0.57159553  0.80738586  0.23209279    -0.94600
O1001       O  0.57533376  0.76309224  0.19174431    -0.93100
O1002       O  0.67260187  0.73656635  0.12803404    -0.93400
O1003       O  0.70561830  0.76797147  0.18340120    -0.92200
C1004       C  0.56187718  0.77598689  0.21945040     1.16900
H1005       H  0.62573775  0.77456978  0.08586472     0.32800
H1006       H  0.69056628  0.85444028  0.19045362     0.43700
H1007       H  0.54389343  0.84758898  0.18799445     0.37200
H1008       H  0.61331435  0.92615257  0.08494180     0.33700
H1009       H  0.75138251  0.79321568  0.13103759     0.25500
H1010       H  0.69112628  0.97872088  0.12304786     0.31400
H1011       H  0.55082065  0.98079079  0.13551149     0.37300
H1012       H  0.68492497  0.73168202  0.10545718     0.31800
H1013       H  0.60190666  0.72579078  0.12910732     0.30600
H1014       H  0.50864055  0.75910645  0.14336710     0.32300
H1015       H  0.50038728  0.90008442  0.17959798     0.31300
H1016       H  0.69588985  0.77824558  0.20552108     0.35300
H1017       H  0.63856843  0.79635335  0.25962975     0.28000
H1018       H  0.59038072  0.90265303  0.01413887     0.32200
H1019       H  0.51721430  0.89996206  0.07851117     0.35100
H1020       H  0.56213264  0.72004105  0.13795715     0.27700
H1021       H  0.66791115  0.82629632  0.26175529     0.40600
H1022       H  0.73955003  0.92176665  0.13125512     0.30600
H1023       H  0.74443057  0.83475141  0.12418919     0.38300
H1024       H  0.49578395  0.87243230  0.14831274     0.30100
H1025       H  0.65307325  0.97694523  0.10634965     0.30200
H1026       H  0.55892127  0.87786327  0.02610664     0.30400
C1027       C  0.74791078  0.75151901  0.98370639     0.79600
N1028       N  0.76029884  0.77491800  0.95893124    -0.78700
C1029       C  0.75373076  0.81079003  0.96044469     0.82100
N1030       N  0.73312386  0.82348824  0.98750709    -0.78600
C1031       C  0.72011302  0.79918053  0.01274540     0.82200
N1032       N  0.72829592  0.76343731  0.01088252    -0.80300
Zr1033     Zr  0.87115534  0.20841755  0.60972089     2.17500
O1034       O  0.84688000  0.26297753  0.63588072    -0.51900
O1035       O  0.91925959  0.23709234  0.57611577    -0.75100
O1036       O  0.91986023  0.23552490  0.64465642    -0.81900
O1037       O  0.78346171  0.19319710  0.57238788    -0.83700
O1038       O  0.95101846  0.18806045  0.66936662    -0.79300
O1039       O  0.82691130  0.23318202  0.56388356    -0.90900
O1040       O  0.94849015  0.19120025  0.54925884    -0.76900
O1041       O  0.92027540  0.16835890  0.60946790    -0.86400
O1042       O  0.86590033  0.17206952  0.55762327    -0.86100
O1043       O  0.86989702  0.17169043  0.66481591    -0.72800
O1044       O  0.81850175  0.17311499  0.62052109    -0.85000
Zr1045     Zr  0.85910896  0.06032446  0.61751892     2.26400
Zr1046     Zr  0.91918467  0.13109079  0.66206355     2.06300
Zr1047     Zr  0.81347568  0.13721715  0.56788068     2.10000
Zr1048     Zr  0.91590535  0.13325319  0.55764216     1.78800
O1049       O  0.75151293  0.13788321  0.55076879    -0.93800
O1050       O  0.97772437  0.11693974  0.56546215    -0.41600
O1051       O  0.86266559  0.09744294  0.56394665    -0.78200
O1052       O  0.91365687  0.09394888  0.61005272    -0.96900
O1053       O  0.86705091  0.09599785  0.66973737    -0.90200
O1054       O  0.80993201  0.09971025  0.62068459    -0.93000
C1055       C  0.94504553  0.22492749  0.55782267     1.00700
C1056       C  0.79547668  0.22100787  0.55634465     1.13700
C1057       C  0.94639304  0.22209992  0.66235969     1.04400
O1058       O  0.98096483  0.11551370  0.65548193    -0.95200
O1059       O  0.93015112  0.07169137  0.68966633    -0.90900
O1060       O  0.89852628  0.02790618  0.66050011    -0.84100
C1061       C  0.92119965  0.03837670  0.68441101     1.11100
O1062       O  0.79004288  0.18370010  0.70531629    -0.97200
Zr1063     Zr  0.81804692  0.13451681  0.67355440     1.88900
O1064       O  0.82114442  0.03166146  0.66204551    -0.73800
O1065       O  0.92389819  0.14146579  0.72634579    -0.53100
O1066       O  0.83817576  0.14003439  0.73556217    -0.97700
O1067       O  0.75394178  0.13440531  0.66972249    -0.55000
O1068       O  0.80392802  0.07459368  0.70134232    -0.74300
C1069       C  0.80600861  0.04134594  0.69096575     0.98000
O1070       O  0.88223721  0.00591414  0.58996135    -0.63100
O1071       O  0.82192685  0.14733429  0.50386942    -0.57900
O1072       O  0.81392163  0.03705628  0.57386723    -0.94600
O1073       O  0.78369802  0.08428967  0.54827539    -0.93100
O1074       O  0.90470080  0.14644825  0.49430903    -0.93400
O1075       O  0.93385796  0.08554076  0.51728305    -0.92200
C1076       C  0.78964312  0.05055170  0.55260929     1.16900
H1077       H  0.86494731  0.18700215  0.53601959     0.32800
H1078       H  0.93297715  0.07698131  0.60962384     0.43700
H1079       H  0.78807996  0.08628727  0.62134245     0.37200
H1080       H  0.87289319  0.18752086  0.68500079     0.33700
H1081       H  0.98896748  0.12494987  0.54288813     0.25500
H1082       H  0.94918555  0.13805058  0.73225398     0.31400
H1083       H  0.84853630  0.11603762  0.74193212     0.37300
H1084       H  0.92757584  0.15519738  0.48505754     0.31800
H1085       H  0.82103441  0.12268053  0.49353730     0.30600
H1086       H  0.73886951  0.13435824  0.57359728     0.32300
H1087       H  0.74714333  0.10851964  0.66706319     0.31300
H1088       H  0.93432387  0.06313486  0.53240637     0.35300
H1089       H  0.86444771  0.98674487  0.59476967     0.28000
H1090       H  0.82259910  0.25594964  0.64248823     0.32200
H1091       H  0.79286664  0.20529714  0.68936661     0.35100
H1092       H  0.79991328  0.15911535  0.49525963     0.27700
H1093       H  0.88029972  0.01080132  0.56381154     0.40600
H1094       H  0.99308015  0.12664302  0.67629384     0.30600
H1095       H  0.98694257  0.13406294  0.58358555     0.38300
H1096       H  0.74839781  0.14580426  0.64608087     0.30100
H1097       H  0.91984730  0.16785249  0.72931880     0.30200
H1098       H  0.84384503  0.28041142  0.61555345     0.30400
C1099       C  0.74668798  0.96338774  0.70736496     0.79600
N1100       N  0.76396355  0.99163342  0.69185891    -0.78700
C1101       C  0.78713063  0.01196199  0.71089759     0.82100
N1102       N  0.79246049  0.00404248  0.74665683    -0.78600
C1103       C  0.77488487  0.97527826  0.76266439     0.82200
N1104       N  0.75241244  0.95525131  0.74261614    -0.80300
Zr1105     Zr  0.93285116  0.88924960  0.85526726     2.17500
O1106       O  0.98568497  0.91999366  0.87730812    -0.51900
O1107       O  0.96076436  0.83814783  0.82736083    -0.75100
O1108       O  0.96405507  0.84062255  0.88746904    -0.81900
O1109       O  0.91683015  0.97456067  0.80706253    -0.83700
O1110       O  0.92168108  0.80413822  0.91213570    -0.79300
O1111       O  0.95280200  0.92676051  0.80281703    -0.90900
O1112       O  0.91491954  0.80630127  0.80318657    -0.76900
O1113       O  0.89595664  0.83674944  0.85667479    -0.86400
O1114       O  0.89284700  0.89365274  0.80532325    -0.86100
O1115       O  0.90260248  0.88829923  0.91212731    -0.72800
O1116       O  0.90013715  0.94358225  0.86781286    -0.85000
Zr1117     Zr  0.79122673  0.89599822  0.86868398     2.26400
Zr1118     Zr  0.86481979  0.83573776  0.91082784     2.06300
Zr1119     Zr  0.86071463  0.94804123  0.81749727     2.10000
Zr1120     Zr  0.85809653  0.83976438  0.80700907     1.78800
O1121       O  0.86482664  0.01171497  0.79835643    -0.93800
O1122       O  0.83891093  0.77659665  0.81277900    -0.41600
O1123       O  0.82434402  0.89453622  0.81444375    -0.78200
O1124       O  0.82384858  0.83975910  0.86088150    -0.96900
O1125       O  0.83097297  0.88883923  0.91850243    -0.90200
O1126       O  0.82782124  0.94908107  0.87238658    -0.93000
C1127       C  0.94801072  0.81021468  0.81159782     1.00700
C1128       C  0.94079208  0.95771260  0.79101746     1.13700
C1129       C  0.95385286  0.81148808  0.90398360     1.04400
O1130       O  0.84986261  0.77116355  0.91090728    -0.95200
O1131       O  0.80961841  0.82751685  0.94232373    -0.90900
O1132       O  0.76352642  0.85268492  0.91106092    -0.84100
C1133       C  0.77653907  0.83343367  0.93725820     1.11100
O1134       O  0.91698975  0.97206706  0.94919991    -0.97200
Zr1135     Zr  0.86671874  0.94084401  0.92213647     1.88900
O1136       O  0.76403330  0.92525216  0.91944290    -0.73800
O1137       O  0.88386305  0.83289187  0.97347751    -0.53100
O1138       O  0.88048008  0.92746984  0.98495334    -0.97700
O1139       O  0.85526367  0.00615879  0.91905563    -0.55000
O1140       O  0.81088732  0.94149753  0.95443789    -0.74300
C1141       C  0.77765364  0.93581438  0.94923861     0.98000
O1142       O  0.73229127  0.88230091  0.84584041    -0.63100
O1143       O  0.85050561  0.94081318  0.75324432    -0.57900
O1144       O  0.77130996  0.93288421  0.81397104    -0.94600
O1145       O  0.80741114  0.98050564  0.81582519    -0.93100
O1146       O  0.87105198  0.84549788  0.74339839    -0.93400
O1147       O  0.80883103  0.82656569  0.76664182    -0.92200
C1148       C  0.78317857  0.96325997  0.80025098     1.16900
H1149       H  0.90385176  0.89464242  0.78219962     0.32800
H1150       H  0.80790851  0.81923455  0.86128167     0.43700
H1151       H  0.81395214  0.97053363  0.87645164     0.37200
H1152       H  0.91963430  0.88570141  0.93144085     0.33700
H1153       H  0.84903992  0.76444972  0.79183567     0.25500
H1154       H  0.86326264  0.84092385  0.98715718     0.31400
H1155       H  0.86268744  0.90920986  0.99244459     0.37300
H1156       H  0.87966258  0.82114758  0.73676160     0.31800
H1157       H  0.87412714  0.94231184  0.74251341     0.30600
H1158       H  0.86348740  0.01144530  0.77183427     0.32300
H1159       H  0.87201903  0.01585132  0.90117842     0.31300
H1160       H  0.78787693  0.82706124  0.78208627     0.35300
H1161       H  0.73289621  0.85606180  0.84023484     0.28000
H1162       H  0.98938074  0.94093685  0.86070455     0.32200
H1163       H  0.93145602  0.98001471  0.92864495     0.35100
H1164       H  0.84308835  0.91518091  0.75013144     0.27700
H1165       H  0.71674819  0.88388400  0.86680763     0.40600
H1166       H  0.85057515  0.76357240  0.93650511     0.30600
H1167       H  0.85253952  0.76680734  0.83358326     0.38300
H1168       H  0.86370917  0.01588052  0.94225749     0.30100
H1169       H  0.88587700  0.80654585  0.97918763     0.30200
H1170       H  0.00512977  0.90307944  0.87220244     0.30400
Zr1171     Zr  0.20968688  0.62905776  0.87376101     2.17500
O1172       O  0.26504422  0.65467673  0.85287750    -0.51900
O1173       O  0.23402538  0.58877592  0.92086107    -0.75100
O1174       O  0.23460158  0.65613778  0.92908497    -0.81900
O1175       O  0.19714344  0.59832874  0.78270010    -0.83700
O1176       O  0.18743252  0.68017840  0.95742134    -0.79300
O1177       O  0.23194965  0.58349852  0.82895930    -0.90900
O1178       O  0.18671890  0.56039197  0.94579098    -0.76900
O1179       O  0.16811334  0.62708513  0.92088486    -0.86400
O1180       O  0.17150808  0.57841089  0.86424434    -0.86100
O1181       O  0.17707741  0.68639835  0.87226382    -0.72800
O1182       O  0.17900879  0.64543974  0.81848292    -0.85000
Zr1183     Zr  0.06691303  0.64248653  0.85314297     2.26400
Zr1184     Zr  0.13492544  0.68173095  0.91963321     2.06300
Zr1185     Zr  0.14132572  0.59397249  0.80930832     2.10000
Zr1186     Zr  0.13166038  0.57631818  0.91283062     1.78800
O1187       O  0.14468479  0.56541872  0.75088553    -0.93800
O1188       O  0.11869778  0.58465113  0.97590840    -0.41600
O1189       O  0.10030850  0.58701502  0.85668566    -0.78200
O1190       O  0.09623773  0.63077241  0.91052374    -0.96900
O1191       O  0.10440271  0.69304588  0.86511618    -0.90200
O1192       O  0.10752179  0.64914436  0.80574934    -0.93000
C1193       C  0.22004467  0.56750663  0.94446757     1.00700
C1194       C  0.22095918  0.57838295  0.79621830     1.13700
C1195       C  0.22013249  0.67150121  0.95606743     1.04400
O1196       O  0.11230725  0.67796560  0.98030615    -0.95200
O1197       O  0.07901292  0.71436682  0.92148435    -0.90900
O1198       O  0.03629657  0.69066931  0.88505406    -0.84100
C1199       C  0.04749513  0.71392005  0.90806738     1.11100
O1200       O  0.19113945  0.73416132  0.78964574    -0.97200
Zr1201     Zr  0.14361366  0.70028573  0.81807978     1.88900
O1202       O  0.03994377  0.69360196  0.82146191    -0.73800
O1203       O  0.15292833  0.74490941  0.92815076    -0.53100
O1204       O  0.15333424  0.76099866  0.84176143    -0.97700
O1205       O  0.14412586  0.70095343  0.75275746    -0.55000
O1206       O  0.08565977  0.73082955  0.80612067    -0.74300
C1207       C  0.05228091  0.72375904  0.80900985     0.98000
O1208       O  0.01418412  0.61402118  0.87737718    -0.63100
O1209       O  0.13996682  0.52829315  0.81991426    -0.57900
O1210       O  0.04590055  0.60122632  0.80383912    -0.94600
O1211       O  0.09335481  0.59404581  0.76896599    -0.93100
O1212       O  0.13592811  0.51162767  0.90000993    -0.93400
O1213       O  0.08171488  0.53924302  0.93155487    -0.92200
C1214       C  0.06139412  0.58823282  0.77598571     1.16900
H1215       H  0.18428087  0.55579605  0.86325633     0.32800
H1216       H  0.07899975  0.62974978  0.92916719     0.43700
H1217       H  0.09542496  0.65443355  0.78331745     0.37200
H1218       H  0.19337613  0.70612060  0.87692402     0.33700
H1219       H  0.12638459  0.56175449  0.98796383     0.25500
H1220       H  0.14897718  0.74950310  0.95384481     0.31400
H1221       H  0.13064588  0.76763722  0.85255220     0.37300
H1222       H  0.16083347  0.50526193  0.90506066     0.31800
H1223       H  0.11882237  0.51979158  0.80661813     0.30600
H1224       H  0.15057553  0.58519831  0.73357283     0.32300
H1225       H  0.11916377  0.70363224  0.74516445     0.31300
H1226       H  0.06448060  0.54147239  0.91147100     0.35300
H1227       H  0.02141631  0.58872961  0.88328592     0.28000
H1228       H  0.28324447  0.64291905  0.86837469     0.32200
H1229       H  0.21160832  0.73078430  0.80610816     0.35100
H1230       H  0.16006803  0.51865384  0.80645395     0.27700
H1231       H  0.01097164  0.62534790  0.90100472     0.40600
H1232       H  0.11622817  0.70252998  0.99023403     0.30600
H1233       H  0.13594583  0.60313821  0.98416283     0.38300
H1234       H  0.15033236  0.67575225  0.74631726     0.30100
H1235       H  0.17885963  0.74526390  0.92585063     0.30200
H1236       H  0.26466858  0.68030903  0.86065565     0.30400
C1237       C  0.99845793  0.77173322  0.74082504     0.79600
N1238       N  0.97279203  0.78643688  0.75982518    -0.78700
C1239       C  0.97334560  0.78502699  0.79555224     0.82100
N1240       N  0.00022666  0.76648779  0.81316332    -0.78600
C1241       C  0.02609707  0.74995937  0.79338469     0.82200
N1242       N  0.02551120  0.75400313  0.75718772    -0.80300
C1243       C  0.99625188  0.52909491  0.73011516     0.79600
N1244       N  0.00988143  0.55430111  0.75269438    -0.78700
C1245       C  0.04441989  0.56322486  0.75046348     0.82100
N1246       N  0.06539266  0.54516665  0.72695117    -0.78600
C1247       C  0.05161517  0.51938379  0.70508157     0.82200
N1248       N  0.01698947  0.51178692  0.70689543    -0.80300
C1249       C  0.27888937  0.51100472  0.75309730     0.79600
N1250       N  0.25613352  0.49269875  0.73175761    -0.78700
C1251       C  0.22173573  0.50163598  0.72989233     0.82100
N1252       N  0.21011649  0.52965618  0.75063252    -0.78600
C1253       C  0.23310377  0.54763592  0.77354943     0.82200
N1254       N  0.26756232  0.53838690  0.77395166    -0.80300
C1255       C  0.75624108  0.96834311  0.50844565     0.79600
N1256       N  0.72808902  0.98035425  0.48854336    -0.78700
C1257       C  0.71972751  0.01632643  0.48935102     0.82100
N1258       N  0.73932734  0.03912573  0.51066129    -0.78600
C1259       C  0.76729100  0.02643707  0.53053931     0.82200
N1260       N  0.77540520  0.99120808  0.52894571    -0.80300
C1261       C  0.99072742  0.28401856  0.49215475     0.79600
N1262       N  0.01279337  0.30341008  0.51282597    -0.78700
C1263       C  0.01556620  0.29716342  0.54825897     0.82100
N1264       N  0.99420627  0.27125906  0.56402968    -0.78600
C1265       C  0.97079091  0.25179718  0.54293057     0.82200
N1266       N  0.97025765  0.25760911  0.50682762    -0.80300
C1267       C  0.99460482  0.26429142  0.73637768     0.79600
N1268       N  0.97057328  0.24593313  0.71671759    -0.78700
C1269       C  0.97143601  0.24656447  0.68054756     0.82100
N1270       N  0.99754800  0.26571126  0.66341168    -0.78600
C1271       C  0.02203915  0.28453601  0.68341284     0.82200
N1272       N  0.02011314  0.28370694  0.71974187    -0.80300
C1273       C  0.49117383  0.74609436  0.28021250     0.79600
N1274       N  0.51913685  0.76409316  0.26645270    -0.78700
C1275       C  0.53221450  0.75458962  0.23462362     0.82100
N1276       N  0.51629087  0.72677095  0.21585848    -0.78600
C1277       C  0.48748173  0.70896681  0.22949467     0.82200
N1278       N  0.47553643  0.71872825  0.26196567    -0.80300
C1279       C  0.74177429  0.98772608  0.26062310     0.79600
N1280       N  0.72606982  0.00897061  0.28459252    -0.78700
C1281       C  0.69267862  0.00236151  0.29477054     0.82100
N1282       N  0.67388235  0.97432949  0.27918455    -0.78600
C1283       C  0.68991036  0.95312085  0.25403866     0.82200
N1284       N  0.72388461  0.96002057  0.24557613    -0.80300
C1285       C  0.24868180  0.73078510  0.02894684     0.79600
N1286       N  0.23341627  0.71744960  0.99907871    -0.78700
C1287       C  0.24119835  0.68385872  0.98729180     0.82100
N1288       N  0.26407450  0.66236239  0.00697014    -0.78600
C1289       C  0.27929797  0.67596334  0.03769876     0.82200
N1290       N  0.27198762  0.71032224  0.04790145    -0.80300
C1291       C  0.75293263  0.28606761  0.49129642     0.79600
N1292       N  0.72672052  0.26550530  0.47653586    -0.78700
C1293       C  0.72322418  0.23002209  0.48628637     0.82100
N1294       N  0.74585484  0.21594409  0.51205298    -0.78600
C1295       C  0.77199654  0.23677131  0.52743196     0.82200
N1296       N  0.77557050  0.27174130  0.51634572    -0.80300
C1297       C  0.22671443  0.48189315  0.23827858     0.79600
N1298       N  0.24031403  0.46719201  0.26948265    -0.78700
C1299       C  0.27566775  0.46836837  0.27550905     0.82100
N1300       N  0.29631377  0.48566769  0.25058832    -0.78600
C1301       C  0.28259810  0.50105804  0.21986887     0.82200
N1302       N  0.24771936  0.49885930  0.21401152    -0.80300
C1303       C  0.26590860  0.48708821  0.98135394     0.79600
N1304       N  0.24370979  0.50934433  0.96298758    -0.78700
C1305       C  0.24383731  0.54555520  0.96842239     0.82100
N1306       N  0.26597877  0.55964620  0.99443471    -0.78600
C1307       C  0.28824310  0.53670844  0.01376821     0.82200
N1308       N  0.28824517  0.50067461  0.00642959    -0.80300
C1309       C  0.50217455  0.98706028  0.27301918     0.79600
N1310       N  0.52133727  0.00541457  0.29756837    -0.78700
C1311       C  0.55631134  0.99949928  0.30187922     0.82100
N1312       N  0.57240900  0.97384588  0.28118820    -0.78600
C1313       C  0.55269393  0.95506566  0.25616408     0.82200
N1314       N  0.51797158  0.96266736  0.25196657    -0.80300
C1315       C  0.50631131  0.25420779  0.26746734     0.79600
N1316       N  0.52940919  0.23391429  0.28700016    -0.78700
C1317       C  0.53386119  0.23894212  0.32268851     0.82100
N1318       N  0.51367292  0.26440931  0.33941103    -0.78600
C1319       C  0.48949688  0.28447053  0.31964347     0.82200
N1320       N  0.48624608  0.27908863  0.28386045    -0.80300
C1321       C  0.23122928  0.25123640  0.49088465     0.79600
N1322       N  0.21051446  0.26450099  0.51685784    -0.78700
C1323       C  0.20884653  0.30081989  0.52204434     0.82100
N1324       N  0.22964504  0.32387275  0.50165034    -0.78600
C1325       C  0.25038591  0.31039113  0.47519636     0.82200
N1326       N  0.25105821  0.27400937  0.47061688    -0.80300
C1327       C  0.00983794  0.77345609  0.97471675     0.79600
N1328       N  0.98658651  0.79382549  0.95595694    -0.78700
C1329       C  0.98092753  0.78820105  0.92076585     0.82100
N1330       N  0.99941781  0.76156596  0.90362804    -0.78600
C1331       C  0.02335541  0.74097570  0.92317541     0.82200
N1332       N  0.02796981  0.74722174  0.95850614    -0.80300
C1333       C  0.74531947  0.98660455  0.02536417     0.79600
N1334       N  0.76322845  0.97624704  0.99649124    -0.78700
C1335       C  0.75465337  0.94512480  0.97942632     0.82100
N1336       N  0.72810087  0.92295395  0.99270848    -0.78600
C1337       C  0.71009640  0.93396730  0.02246015     0.82200
N1338       N  0.71892703  0.96588374  0.03761687    -0.80300
C1339       C  0.99954427  0.99157105  0.71957600     0.79600
N1340       N  0.97692691  0.01015638  0.69788911    -0.78700
C1341       C  0.94219173  0.01118462  0.70499090     0.82100
N1342       N  0.93030256  0.99417820  0.73538769    -0.78600
C1343       C  0.95313153  0.97468004  0.75721380     0.82200
N1344       N  0.98777018  0.97410459  0.74939191    -0.80300
C1345       C  0.62899071  0.52879089  0.28807743     0.19700
C1346       C  0.65629946  0.55436464  0.28702906    -0.40100
C1347       C  0.68795413  0.54169199  0.27361785     0.18700
C1348       C  0.69200155  0.50628131  0.26216448     0.21400
C1349       C  0.66502486  0.48038107  0.26419970    -0.40600
C1350       C  0.63339783  0.49298010  0.27780765     0.20200
N1351       N  0.59516597  0.53551538  0.29447343    -0.33900
C1352       C  0.57826013  0.50376050  0.28840422    -0.11500
C1353       C  0.60104801  0.47633659  0.27867119    -0.30300
N1354       N  0.72434791  0.50131449  0.24967277    -0.46900
C1355       C  0.74100569  0.53366814  0.25368773    -0.06200
C1356       C  0.71925835  0.55961265  0.26842892    -0.23500
H1357       H  0.65270662  0.58242469  0.29457663     0.18300
H1358       H  0.66806111  0.45288806  0.25470559     0.17100
H1359       H  0.59424721  0.44939350  0.26936803     0.13400
H1360       H  0.72565212  0.58752340  0.27489133     0.13200
H1361       H  0.58392747  0.56067477  0.30004594     0.31400
H1362       H  0.73468525  0.47717965  0.23986215     0.34100
C1363       C  0.75171743  0.44550375  0.48801831     0.19700
C1364       C  0.72777369  0.41654785  0.48644210    -0.40100
C1365       C  0.74260478  0.38237196  0.48109203     0.18700
C1366       C  0.77859374  0.37751037  0.47783817     0.21400
C1367       C  0.80237116  0.40668602  0.47778484    -0.40600
C1368       C  0.78749316  0.44085366  0.48308956     0.20200
N1369       N  0.74456446  0.48013092  0.49568287    -0.33900
C1370       C  0.77597013  0.49755259  0.49526114    -0.11500
C1371       C  0.80337292  0.47417522  0.48721721    -0.30300
N1372       N  0.78660951  0.34208057  0.47891455    -0.46900
C1373       C  0.75550391  0.32453713  0.48259719    -0.06200
C1374       C  0.72734602  0.34849523  0.48332663    -0.23500
H1375       H  0.69993794  0.42008953  0.49101712     0.18300
H1376       H  0.83051963  0.40282574  0.47594511     0.17100
H1377       H  0.83117511  0.48053040  0.48569152     0.13400
H1378       H  0.70004018  0.34209276  0.48857637     0.13200
H1379       H  0.71993503  0.49119646  0.50096188     0.31400
H1380       H  0.81174001  0.33061676  0.47918218     0.34100
C1381       C  0.84928578  0.47957334  0.72452200     0.19700
C1382       C  0.87615578  0.48964717  0.70135750    -0.40100
C1383       C  0.90848714  0.49669082  0.71792973     0.18700
C1384       C  0.91388652  0.49327924  0.75467148     0.21400
C1385       C  0.88771641  0.48046106  0.77754601    -0.40600
C1386       C  0.85509583  0.47394365  0.76103822     0.20200
N1387       N  0.81486710  0.48021411  0.71670656    -0.33900
C1388       C  0.79896704  0.47496692  0.74841866    -0.11500
C1389       C  0.82291343  0.46970842  0.77651743    -0.30300
N1390       N  0.94582149  0.50566143  0.76411396    -0.46900
C1391       C  0.96045175  0.51663143  0.73299691    -0.06200
C1392       C  0.93840469  0.51111198  0.70362778    -0.23500
H1393       H  0.87139818  0.49511049  0.67310099     0.18300
H1394       H  0.89153195  0.47891446  0.80634643     0.17100
H1395       H  0.81741016  0.46845835  0.80490087     0.13400
H1396       H  0.94340208  0.51761883  0.67575850     0.13200
H1397       H  0.80298974  0.48693387  0.69204566     0.31400
H1398       H  0.95702776  0.50641277  0.78984233     0.34100
C1399       C  0.43005044  0.50385368  0.72157430     0.19700
C1400       C  0.40113142  0.52653340  0.71548827    -0.40100
C1401       C  0.36944336  0.51363279  0.72918055     0.18700
C1402       C  0.36637123  0.48003830  0.74638810     0.21400
C1403       C  0.39520514  0.45685831  0.75168214    -0.40600
C1404       C  0.42729249  0.47036573  0.73904919     0.20200
N1405       N  0.46372025  0.51262617  0.71617857    -0.33900
C1406       C  0.48259781  0.48500034  0.73105725    -0.11500
C1407       C  0.46090519  0.45774977  0.74503497    -0.30300
N1408       N  0.33340047  0.47467455  0.75767127    -0.46900
C1409       C  0.31607550  0.50549686  0.74813883    -0.06200
C1410       C  0.33739341  0.53033326  0.73029571    -0.23500
H1411       H  0.40358662  0.55327435  0.70309230     0.18300
H1412       H  0.39320169  0.43127133  0.76635306     0.17100
H1413       H  0.46870314  0.43380821  0.76046405     0.13400
H1414       H  0.33023825  0.55683936  0.71940036     0.13200
H1415       H  0.47323486  0.53726369  0.70568527     0.31400
H1416       H  0.32337278  0.45183048  0.77116299     0.34100
C1417       C  0.81936059  0.84732244  0.58326278     0.19700
C1418       C  0.78896881  0.86867209  0.58397254    -0.40100
C1419       C  0.78306935  0.89061894  0.55369410     0.18700
C1420       C  0.80734635  0.89433624  0.52677002     0.21400
C1421       C  0.83955440  0.87631095  0.52798355    -0.40600
C1422       C  0.84429861  0.85165557  0.55658076     0.20200
N1423       N  0.82079846  0.81369292  0.59733587    -0.33900
C1424       C  0.84358397  0.79557827  0.57658304    -0.11500
C1425       C  0.86218801  0.81953793  0.55458828    -0.30300
N1426       N  0.79648890  0.91872814  0.50208555    -0.46900
C1427       C  0.76511372  0.93075745  0.51360659    -0.06200
C1428       C  0.75539785  0.91298220  0.54516779    -0.23500
H1429       H  0.76873882  0.86426318  0.60372834     0.18300
H1430       H  0.85761245  0.87793202  0.50584374     0.17100
H1431       H  0.87768136  0.81193377  0.53178630     0.13400
H1432       H  0.73397561  0.91996181  0.56255799     0.13200
H1433       H  0.80067606  0.80208505  0.61263016     0.31400
H1434       H  0.81153642  0.92972970  0.48131226     0.34100
C1435       C  0.50243391  0.74970918  0.43414161     0.19700
C1436       C  0.49009315  0.72565117  0.40819761    -0.40100
C1437       C  0.48296080  0.74141837  0.37457478     0.18700
C1438       C  0.48795012  0.77831619  0.36756033     0.21400
C1439       C  0.49831460  0.80263622  0.39404585    -0.40600
C1440       C  0.50556035  0.78684088  0.42748776     0.20200
N1441       N  0.51386393  0.74118355  0.46726362    -0.33900
C1442       C  0.52389807  0.77325653  0.48138261    -0.11500
C1443       C  0.51890316  0.80238406  0.45783122    -0.30300
N1444       N  0.48751346  0.78518992  0.33233963    -0.46900
C1445       C  0.48235676  0.75251412  0.31704107    -0.06200
C1446       C  0.47815184  0.72470443  0.34231492    -0.23500
H1447       H  0.48869243  0.69653431  0.41306315     0.18300
H1448       H  0.50317485  0.83120238  0.38830964     0.17100
H1449       H  0.52469787  0.83086800  0.46224929     0.13400
H1450       H  0.47754118  0.69568804  0.33760574     0.13200
H1451       H  0.51446577  0.71544794  0.47962829     0.31400
H1452       H  0.49388113  0.80982311  0.31953800     0.34100
C1453       C  0.49255025  0.65743497  0.85742672     0.19700
C1454       C  0.51461225  0.64717894  0.88629656    -0.40100
C1455       C  0.51093108  0.66751346  0.91731749     0.18700
C1456       C  0.48611797  0.69483027  0.91970803     0.21400
C1457       C  0.46246823  0.70333224  0.89184807    -0.40600
C1458       C  0.46693790  0.68400783  0.86036351     0.20200
N1459       N  0.49886957  0.65108003  0.82295948    -0.33900
C1460       C  0.47844030  0.67490251  0.80400325    -0.11500
C1461       C  0.45659010  0.69426664  0.82631087    -0.30300
N1462       N  0.48958821  0.71210232  0.95076607    -0.46900
C1463       C  0.51679462  0.69575312  0.96817775    -0.06200
C1464       C  0.53076328  0.66755934  0.94854178    -0.23500
H1465       H  0.53579928  0.62786606  0.88344953     0.18300
H1466       H  0.44451927  0.72606587  0.89328088     0.17100
H1467       H  0.44134193  0.71822668  0.81912815     0.13400
H1468       H  0.55226193  0.64963020  0.95611124     0.13200
H1469       H  0.51999372  0.63607634  0.81345864     0.31400
H1470       H  0.47415986  0.73344118  0.95985920     0.34100
C1471       C  0.76810075  0.14024784  0.04958351     0.19700
C1472       C  0.78888394  0.10989134  0.04320191    -0.40100
C1473       C  0.77231865  0.07639068  0.04883295     0.18700
C1474       C  0.73832477  0.07352385  0.06174778     0.21400
C1475       C  0.71832335  0.10387524  0.07015462    -0.40600
C1476       C  0.73412535  0.13731474  0.06249503     0.20200
N1477       N  0.77528754  0.17456865  0.03981467    -0.33900
C1478       C  0.74533299  0.19297388  0.04563095    -0.11500
C1479       C  0.71915075  0.17110293  0.06003538    -0.30300
N1480       N  0.72596308  0.03975805  0.05801193    -0.46900
C1481       C  0.75171374  0.02156957  0.04145516    -0.06200
C1482       C  0.78140910  0.04299987  0.03609632    -0.23500
H1483       H  0.81434562  0.11221217  0.03070925     0.18300
H1484       H  0.69099468  0.10161294  0.07774954     0.17100
H1485       H  0.69228875  0.17850027  0.06577167     0.13400
H1486       H  0.80458147  0.03633341  0.02104863     0.13200
H1487       H  0.79819840  0.18445437  0.02786630     0.31400
H1488       H  0.70031731  0.03076093  0.06294070     0.34100
C1489       C  0.08709284  0.02183719  0.72951429     0.19700
C1490       C  0.11548512  0.03779298  0.74747777    -0.40100
C1491       C  0.14811300  0.03306327  0.73175852     0.18700
C1492       C  0.15208814  0.01413485  0.70022924     0.21400
C1493       C  0.12320270  0.00024652  0.68090233    -0.40600
C1494       C  0.09049936  0.00448900  0.69705214     0.20200
N1495       N  0.05431513  0.01868103  0.74150830    -0.33900
C1496       C  0.03669619  0.99940750  0.71650067    -0.11500
C1497       C  0.05795529  0.99039304  0.68799225    -0.30300
N1498       N  0.18598375  0.00575261  0.69562912    -0.46900
C1499       C  0.20322212  0.01892988  0.72473970    -0.06200
C1500       C  0.18075592  0.03734234  0.74708545    -0.23500
H1501       H  0.11280010  0.04998191  0.77350764     0.18300
H1502       H  0.12632214  0.98423344  0.65707130     0.17100
H1503       H  0.05087399  0.97463814  0.66468534     0.13400
H1504       H  0.18660798  0.04736102  0.77365989     0.13200
H1505       H  0.04448407  0.02878490  0.76535987     0.31400
H1506       H  0.19602311  0.98882203  0.67604804     0.34100
C1507       C  0.01745136  0.77491837  0.13151998     0.19700
C1508       C  0.02123847  0.75075914  0.10357142    -0.40100
C1509       C  0.01940418  0.76651875  0.06953294     0.18700
C1510       C  0.01369557  0.80344660  0.06372879     0.21400
C1511       C  0.01117132  0.82792534  0.09183937    -0.40600
C1512       C  0.01351680  0.81216216  0.12607465     0.20200
N1513       N  0.01566839  0.76614889  0.16614388    -0.33900
C1514       C  0.01102007  0.79801725  0.18274844    -0.11500
C1515       C  0.01006636  0.82756272  0.15905756    -0.30300
N1516       N  0.00988178  0.81087912  0.02872904    -0.46900
C1517       C  0.01383935  0.77845771  0.01269560    -0.06200
C1518       C  0.02011394  0.75024143  0.03699601    -0.23500
H1519       H  0.02420115  0.72170918  0.10798918     0.18300
H1520       H  0.00659224  0.85673678  0.08739411     0.17100
H1521       H  0.00583041  0.85593936  0.16504233     0.13400
H1522       H  0.02307753  0.72154452  0.03160437     0.13200
H1523       H  0.01726227  0.74010795  0.17778174     0.31400
H1524       H  0.00457579  0.83613504  0.01655539     0.34100
C1525       C  0.28425184  0.68595621  0.45185599     0.19700
C1526       C  0.26465274  0.65761308  0.43667777    -0.40100
C1527       C  0.26283631  0.62575768  0.45754380     0.18700
C1528       C  0.27974685  0.62235987  0.49058750     0.21400
C1529       C  0.30147751  0.64952846  0.50440712    -0.40600
C1530       C  0.30304883  0.68148512  0.48381673     0.20200
N1531       N  0.28156945  0.72132080  0.44302844    -0.33900
C1532       C  0.29825589  0.73910980  0.46988176    -0.11500
C1533       C  0.31355013  0.71516297  0.49471972    -0.30300
N1534       N  0.27161136  0.59072684  0.50655595    -0.46900
C1535       C  0.24969976  0.57385441  0.48331086    -0.06200
C1536       C  0.24381245  0.59439791  0.45222730    -0.23500
H1537       H  0.24913701  0.66130467  0.41231732     0.18300
H1538       H  0.31369774  0.64717094  0.53075334     0.17100
H1539       H  0.32457707  0.72170711  0.52078711     0.13400
H1540       H  0.22806805  0.58720186  0.42895765     0.13200
H1541       H  0.26546416  0.73258440  0.42280324     0.31400
H1542       H  0.28120760  0.58067744  0.53117362     0.34100
C1543       C  0.27832475  0.09947080  0.47484985     0.19700
C1544       C  0.26267972  0.12735843  0.45417802    -0.40100
C1545       C  0.25601485  0.15946334  0.47245522     0.18700
C1546       C  0.26432557  0.16334723  0.50847432     0.21400
C1547       C  0.28145210  0.13617644  0.52862704    -0.40600
C1548       C  0.28828669  0.10415499  0.51038510     0.20200
N1549       N  0.28055800  0.06436058  0.46612167    -0.33900
C1550       C  0.29177455  0.04679944  0.49637678    -0.11500
C1551       C  0.29816171  0.07082891  0.52412139    -0.30300
N1552       N  0.25419347  0.19588281  0.51997276    -0.46900
C1553       C  0.23988992  0.21292565  0.49091941    -0.06200
C1554       C  0.24061132  0.19135567  0.46068175    -0.23500
H1555       H  0.25438642  0.12357672  0.42659666     0.18300
H1556       H  0.28733719  0.13904978  0.55692101     0.17100
H1557       H  0.30357106  0.06403818  0.55200477     0.13400
H1558       H  0.23187007  0.19842068  0.43371770     0.13200
H1559       H  0.27150631  0.05267059  0.44232910     0.31400
H1560       H  0.25809784  0.20647056  0.54555658     0.34100
C1561       C  0.99233654  0.83702383  0.59760182     0.19700
C1562       C  0.01184414  0.84009534  0.62942819    -0.40100
C1563       C  0.00175084  0.81632054  0.65678676     0.18700
C1564       C  0.97227269  0.79420844  0.65401035     0.21400
C1565       C  0.95025067  0.79439552  0.62390408    -0.40600
C1566       C  0.96210437  0.81551721  0.59515863     0.20200
N1567       N  0.00594339  0.84266428  0.56527740    -0.33900
C1568       C  0.98575869  0.82266913  0.54286112    -0.11500
C1569       C  0.95669317  0.80780947  0.55983508    -0.30300
N1570       N  0.96944119  0.77261045  0.68282839    -0.46900
C1571       C  0.99771082  0.78068646  0.70354615    -0.06200
C1572       C  0.01853314  0.80780075  0.68849971    -0.23500
H1573       H  0.03654847  0.85488700  0.63067716     0.18300
H1574       H  0.92867682  0.77520480  0.62114672     0.17100
H1575       H  0.93949759  0.78664177  0.54961535     0.13400
H1576       H  0.04151252  0.82088373  0.70012669     0.13200
H1577       H  0.03112437  0.85301757  0.56034978     0.31400
H1578       H  0.94892251  0.75453787  0.68872424     0.34100
C1579       C  0.03379603  0.32903976  0.34801930     0.19700
C1580       C  0.01576487  0.34305925  0.37709355    -0.40100
C1581       C  0.00937831  0.31819369  0.40501516     0.18700
C1582       C  0.02064227  0.28241144  0.40434502     0.21400
C1583       C  0.04074117  0.26916788  0.37652127    -0.40600
C1584       C  0.04703342  0.29387447  0.34848665     0.20200
N1585       N  0.03370823  0.34307187  0.31465229    -0.33900
C1586       C  0.04636064  0.31633010  0.29398867    -0.11500
C1587       C  0.05700019  0.28622907  0.31447364    -0.30300
N1588       N  0.01127233  0.26424810  0.43408743    -0.46900
C1589       C  0.99445158  0.28889815  0.45398096    -0.06200
C1590       C  0.99262544  0.32279899  0.43683462    -0.23500
H1591       H  0.00495834  0.37029568  0.37671910     0.18300
H1592       H  0.04897730  0.24100706  0.37569665     0.17100
H1593       H  0.06355490  0.25949584  0.30477588     0.13400
H1594       H  0.98281357  0.34799150  0.44747264     0.13200
H1595       H  0.02099133  0.36688170  0.30597531     0.31400
H1596       H  0.01838250  0.23772578  0.44163983     0.34100
C1597       C  0.99951904  0.25876052  0.89573869     0.19700
C1598       C  0.02159626  0.26731579  0.86699435    -0.40100
C1599       C  0.00618066  0.26420588  0.83280452     0.18700
C1600       C  0.97169331  0.25272688  0.82777480     0.21400
C1601       C  0.94960382  0.24438504  0.85642304    -0.40600
C1602       C  0.96475915  0.24823797  0.89051795     0.20200
N1603       N  0.00749482  0.26022361  0.93086830    -0.33900
C1604       C  0.97735522  0.25121157  0.94780313    -0.11500
C1605       C  0.95013355  0.24367201  0.92368228    -0.30300
N1606       N  0.96342172  0.25137866  0.79283472    -0.46900
C1607       C  0.99267576  0.26249034  0.77545186    -0.06200
C1608       C  0.01993254  0.27089596  0.79938337    -0.23500
H1609       H  0.04859587  0.27608911  0.87096329     0.18300
H1610       H  0.92249148  0.23596641  0.85245132     0.17100
H1611       H  0.92327764  0.23604161  0.92968537     0.13400
H1612       H  0.04627324  0.28011434  0.79315506     0.13200
H1613       H  0.03155279  0.26769004  0.94260169     0.31400
H1614       H  0.93928090  0.24352393  0.78151140     0.34100
C1615       C  0.34887093  0.01672674  0.26784867     0.19700
C1616       C  0.37638456  0.01284224  0.29302044    -0.40100
C1617       C  0.40975276  0.00754251  0.27870865     0.18700
C1618       C  0.41521042  0.00604459  0.24213628     0.21400
C1619       C  0.38791131  0.01139070  0.21694618    -0.40600
C1620       C  0.35453872  0.01689688  0.23125032     0.20200
N1621       N  0.31436379  0.01798986  0.27459365    -0.33900
C1622       C  0.29805069  0.01925571  0.24210220    -0.11500
C1623       C  0.32214696  0.01929498  0.21436444    -0.30300
N1624       N  0.44886511  0.99809417  0.23546402    -0.46900
C1625       C  0.46488522  0.99512124  0.26800688    -0.06200
C1626       C  0.44154985  0.00106488  0.29565555    -0.23500
H1627       H  0.37191462  0.01242004  0.32160340     0.18300
H1628       H  0.39209407  0.00988702  0.18838450     0.17100
H1629       H  0.31656168  0.01845269  0.18585394     0.13400
H1630       H  0.44698484  0.99988658  0.32421519     0.13200
H1631       H  0.30256742  0.01683653  0.29969405     0.31400
H1632       H  0.46028730  0.99502594  0.21041403     0.34100
C1633       C  0.25078994  0.82408874  0.05013373     0.19700
C1634       C  0.26755655  0.85769410  0.05477498    -0.40100
C1635       C  0.24727025  0.88820207  0.04554090     0.18700
C1636       C  0.21246523  0.88555179  0.03405628     0.21400
C1637       C  0.19541615  0.85200887  0.03032876    -0.40600
C1638       C  0.21612641  0.82146236  0.03817604     0.20200
N1639       N  0.26606697  0.79125350  0.05128637    -0.33900
C1640       C  0.24118171  0.76798129  0.03898224    -0.11500
C1641       C  0.20961259  0.78558411  0.03101546    -0.30300
N1642       N  0.19988716  0.91827724  0.02411155    -0.46900
C1643       C  0.22721981  0.94149221  0.02851303    -0.06200
C1644       C  0.25713475  0.92400527  0.04189609    -0.23500
H1645       H  0.29515275  0.85982073  0.06217075     0.18300
H1646       H  0.16891927  0.84979189  0.01944611     0.17100
H1647       H  0.18613109  0.77414374  0.01872774     0.13400
H1648       H  0.28294008  0.93570751  0.04679136     0.13200
H1649       H  0.29247694  0.78551224  0.05712670     0.31400
H1650       H  0.17499665  0.92418581  0.01327090     0.34100
C1651       C  0.26755520  0.32747870  0.96309223     0.19700
C1652       C  0.29140614  0.35638887  0.96660980    -0.40100
C1653       C  0.27620582  0.39079809  0.96915935     0.18700
C1654       C  0.24010734  0.39597649  0.96697562     0.21400
C1655       C  0.21628612  0.36713482  0.96332721    -0.40600
C1656       C  0.23141696  0.33265364  0.96204218     0.20200
N1657       N  0.27518565  0.29196931  0.96365233    -0.33900
C1658       C  0.24369451  0.27469811  0.96391345    -0.11500
C1659       C  0.21573289  0.29894068  0.96280039    -0.30300
N1660       N  0.23222246  0.43112282  0.97044811    -0.46900
C1661       C  0.26341450  0.44821080  0.97563233    -0.06200
C1662       C  0.29155766  0.42415612  0.97519896    -0.23500
H1663       H  0.31955540  0.35221642  0.96879904     0.18300
H1664       H  0.18806332  0.37113590  0.96303720     0.17100
H1665       H  0.18789761  0.29272491  0.96420939     0.13400
H1666       H  0.31928107  0.43027522  0.97876669     0.13200
H1667       H  0.30013772  0.28021011  0.96594363     0.31400
H1668       H  0.20714383  0.44271332  0.97015453     0.34100
C1669       C  0.88997578  0.03149829  0.24736491     0.19700
C1670       C  0.85655175  0.04704482  0.24474613    -0.40100
C1671       C  0.82856234  0.02237276  0.24582263     0.18700
C1672       C  0.83349859  0.98500984  0.24828108     0.21400
C1673       C  0.86701344  0.96943369  0.25051365    -0.40600
C1674       C  0.89503640  0.99421212  0.25051876     0.20200
N1675       N  0.92070051  0.04925640  0.24891135    -0.33900
C1676       C  0.94533297  0.02312945  0.25370220    -0.11500
C1677       C  0.93054544  0.98842280  0.25493719    -0.30300
N1678       N  0.80263090  0.96766399  0.25155242    -0.46900
C1679       C  0.77827659  0.99433873  0.25203500    -0.06200
C1680       C  0.79321193  0.02875592  0.24829234    -0.23500
H1681       H  0.85263198  0.07623037  0.24361273     0.18300
H1682       H  0.87090751  0.94036986  0.25372149     0.17100
H1683       H  0.94392477  0.96264511  0.25872559     0.13400
H1684       H  0.78014841  0.05485807  0.24931268     0.13200
H1685       H  0.92464282  0.07742626  0.24758249     0.31400
H1686       H  0.79855068  0.93973077  0.25544047     0.34100
C1687       C  0.61620460  0.93929542  0.74965431     0.19700
C1688       C  0.64055781  0.91540658  0.73552167    -0.40100
C1689       C  0.66262793  0.93040946  0.70956891     0.18700
C1690       C  0.65896623  0.96616556  0.69720542     0.21400
C1691       C  0.63220737  0.98886473  0.70912608    -0.40600
C1692       C  0.61216333  0.97461036  0.73701974     0.20200
N1693       N  0.59303182  0.93175696  0.77520408    -0.33900
C1694       C  0.57404386  0.96250978  0.77876190    -0.11500
C1695       C  0.58564912  0.99019229  0.75596670    -0.30300
N1696       N  0.68945281  0.97865262  0.68450691    -0.46900
C1697       C  0.71313694  0.95212543  0.69199762    -0.06200
C1698       C  0.69677609  0.92042185  0.70412237    -0.23500
H1699       H  0.64481604  0.88849020  0.74703902     0.18300
H1700       H  0.63041299  0.01723235  0.70094230     0.17100
H1701       H  0.57334072  0.01628768  0.75057097     0.13400
H1702       H  0.70982556  0.89766406  0.71746621     0.13200
H1703       H  0.58820196  0.90622268  0.78697142     0.31400
H1704       H  0.69517976  0.00621853  0.67998283     0.34100
C1705       C  0.50110479  0.20862442  0.66996900     0.19700
C1706       C  0.49318660  0.19273031  0.63698756    -0.40100
C1707       C  0.48934249  0.21714671  0.60804219     0.18700
C1708       C  0.49206040  0.25456138  0.61187661     0.21400
C1709       C  0.49970736  0.27041699  0.64491053    -0.40600
C1710       C  0.50478322  0.24595146  0.67358043     0.20200
N1711       N  0.50690836  0.19139198  0.70142132    -0.33900
C1712       C  0.51493451  0.21800485  0.72485680    -0.11500
C1713       C  0.51419329  0.25232929  0.70855316    -0.30300
N1714       N  0.49061464  0.27163103  0.57989878    -0.46900
C1715       C  0.48798484  0.24477956  0.55569479    -0.06200
C1716       C  0.48676185  0.21049240  0.57204821    -0.23500
H1717       H  0.49167577  0.16350755  0.63382780     0.18300
H1718       H  0.50313904  0.29951445  0.64772979     0.17100
H1719       H  0.51901242  0.27840635  0.72086689     0.13400
H1720       H  0.48680109  0.18426837  0.55920631     0.13200
H1721       H  0.50562505  0.16337569  0.70663405     0.31400
H1722       H  0.49410081  0.29945226  0.57470928     0.34100
C1723       C  0.49519074  0.24968890  0.10857976     0.19700
C1724       C  0.48968750  0.27389046  0.13655121    -0.40100
C1725       C  0.49519579  0.25949686  0.17114997     0.18700
C1726       C  0.50612190  0.22397014  0.17733338     0.21400
C1727       C  0.51111317  0.19959980  0.14937922    -0.40600
C1728       C  0.50482457  0.21375429  0.11481040     0.20200
N1729       N  0.49318785  0.25711033  0.07330952    -0.33900
C1730       C  0.50097184  0.22549837  0.05715250    -0.11500
C1731       C  0.50812328  0.19773619  0.08198270    -0.30300
N1732       N  0.51130297  0.21752816  0.21249861    -0.46900
C1733       C  0.50313526  0.24902652  0.22875450    -0.06200
C1734       C  0.49272743  0.27577139  0.20394570    -0.23500
H1735       H  0.48210397  0.30194760  0.13172087     0.18300
H1736       H  0.51959863  0.17181614  0.15417682     0.17100
H1737       H  0.51621258  0.17014187  0.07668015     0.13400
H1738       H  0.48540800  0.30361836  0.20916054     0.13200
H1739       H  0.48734167  0.28215181  0.06095692     0.31400
H1740       H  0.51995911  0.19328729  0.22469128     0.34100
C1741       C  0.09575557  0.55948392  0.21307409     0.19700
C1742       C  0.12175806  0.55475813  0.23953328    -0.40100
C1743       C  0.14522553  0.52653124  0.23390862     0.18700
C1744       C  0.14463443  0.50625606  0.20299664     0.21400
C1745       C  0.11931563  0.51171092  0.17581286    -0.40600
C1746       C  0.09437924  0.53864238  0.18242434     0.20200
N1747       N  0.06535771  0.57660235  0.21775668    -0.33900
C1748       C  0.04355687  0.56467098  0.19144163    -0.11500
C1749       C  0.06135577  0.54280737  0.16749777    -0.30300
N1750       N  0.17213098  0.48361821  0.20272121    -0.46900
C1751       C  0.18970593  0.48937769  0.23397624    -0.06200
C1752       C  0.17336125  0.51531032  0.25446813    -0.23500
H1753       H  0.12190765  0.56994065  0.26415832     0.18300
H1754       H  0.11779288  0.49465652  0.15244512     0.17100
H1755       H  0.04969548  0.52589698  0.14693889     0.13400
H1756       H  0.18337021  0.52774190  0.27870401     0.13200
H1757       H  0.05829294  0.58980142  0.24116662     0.31400
H1758       H  0.18000548  0.46755365  0.18145063     0.34100
C1759       C  0.79073151  0.59859404  0.97482698     0.19700
C1760       C  0.79281952  0.62722209  0.99890451    -0.40100
C1761       C  0.77689503  0.65938744  0.98713351     0.18700
C1762       C  0.76137913  0.66303994  0.95339525     0.21400
C1763       C  0.75966724  0.63457889  0.92912768    -0.40600
C1764       C  0.77455914  0.60199978  0.94136715     0.20200
N1765       N  0.79820264  0.56390907  0.98231056    -0.33900
C1766       C  0.78554364  0.54503791  0.95408460    -0.11500
C1767       C  0.77135665  0.56778275  0.92751801    -0.30300
N1768       N  0.74840773  0.69640934  0.94849991    -0.46900
C1769       C  0.75521998  0.71357584  0.97953417    -0.06200
C1770       C  0.77271937  0.69162808  0.00451752    -0.23500
H1771       H  0.80409108  0.62398989  0.02559223     0.18300
H1772       H  0.74609371  0.63708460  0.90348234     0.17100
H1773       H  0.75669002  0.55999626  0.90371761     0.13400
H1774       H  0.78203366  0.69869267  0.03108457     0.13200
H1775       H  0.80759834  0.55349526  0.00687017     0.31400
H1776       H  0.73586631  0.70699642  0.92550834     0.34100
loop_ 
_geom_bond_atom_site_label_1 
_geom_bond_atom_site_label_2 
_geom_bond_distance 
_geom_bond_site_symmetry_2 
_ccdc_geom_bond_type 
Zr1           O2   2.436       .  S
Zr1           O3   2.469       .  S
Zr1           O4   2.562       .  S
Zr1           O7   2.502       .  S
Zr1           O9   2.394       .  S
Zr1          O10   2.391       .  S
Zr1          O11   2.428       .  S
Zr1          O12   2.444       .  S
O2           H58   0.990       .  S
O2           H66   0.990       .  S
O3           C23   1.289       .  A
O4           C25   1.309       .  A
O5          Zr15   2.440       .  S
O5           C24   1.287       .  A
O6          Zr14   2.349       .  S
O6           C25   1.259       .  A
O7           C24   1.298       .  A
O8          Zr16   2.471       .  S
O8           C23   1.294       .  A
O9          Zr14   2.394       .  S
O9          Zr16   2.372       .  S
O10         Zr15   2.356       .  S
O10         Zr16   2.336       .  S
O10          H45   0.961       .  S
O11         Zr14   2.405       .  S
O11         Zr31   2.420       .  S
O11          H48   0.966       .  S
O12         Zr15   2.400       .  S
O12         Zr31   2.428       .  S
Zr13         O38   2.433       .  S
Zr13         O32   2.434       .  S
Zr13         O40   2.465       .  S
Zr13         O28   2.531       .  S
Zr13         O19   2.434       .  S
Zr13         O20   2.424       .  S
Zr13         O21   2.363       .  S
Zr13         O22   2.392       .  S
Zr14         O33   2.438       .  S
Zr14         O26   2.437       .  S
Zr14         O27   2.356       .  S
Zr14         O20   2.386       .  S
Zr14         O21   2.397       .  S
Zr15         O17   2.434       .  S
Zr15         O39   2.437       .  S
Zr15         O41   2.430       .  S
Zr15         O19   2.405       .  S
Zr15         O22   2.362       .  S
Zr16         O42   2.435       .  S
Zr16         O43   2.434       .  S
Zr16         O18   2.436       .  S
Zr16         O19   2.411       .  S
Zr16         O20   2.412       .  S
O17          H54   0.990       .  S
O18          H49   0.990       .  S
O18          H63   0.989       .  S
O20          H46   0.965       .  S
O21         Zr31   2.362       .  S
O22         Zr31   2.344       .  S
O22          H47   0.965       .  S
C23         C645   1.499       .  S
C24         C665   1.492       .  S
C25         C639   1.501       .  S
O26          H62   0.990       .  S
O27          C29   1.260       .  A
O28          C29   1.303       .  A
C29         C635   1.485       .  S
O30         Zr31   2.439       .  S
O30          H59   0.990       .  S
Zr31         O34   2.438       .  S
Zr31         O35   2.437       .  S
Zr31         O36   2.507       .  S
O32          C37   1.282       .  A
O33          H50   0.989       .  S
O33          H65   0.990       .  S
O34          H51   0.990       .  S
O35          H55   0.991       .  S
O35          H64   0.990       .  S
O36          C37   1.300       .  A
C37         C653   1.496       .  S
O38          H57   0.991       .  S
O38          H61   0.990       .  S
O39          H53   0.991       .  S
O39          H60   0.990       .  S
O40          C44   1.291       .  A
O41          C44   1.287       .  A
O42          H52   0.990       .  S
O43          H56   0.990       .  S
C44         C659   1.479       .  S
Zr67         O68   2.434       .  S
Zr67         O69   2.456       .  S
Zr67         O70   2.570       .  S
Zr67         O73   2.495       .  S
Zr67         O75   2.378       .  S
Zr67         O76   2.391       .  S
Zr67         O77   2.412       .  S
Zr67         O78   2.445       .  S
O68         H124   0.990       .  S
O68         H132   0.990       .  S
O69          C89   1.291       .  A
O70          C91   1.313       .  A
O71         Zr81   2.445       .  S
O71          C90   1.289       .  A
O72         Zr80   2.334       .  S
O72          C91   1.265       .  A
O73          C90   1.296       .  A
O74         Zr82   2.495       .  S
O74          C89   1.295       .  A
O75         Zr80   2.389       .  S
O75         Zr82   2.386       .  S
O76         Zr81   2.358       .  S
O76         Zr82   2.334       .  S
O76         H111   0.961       .  S
O77         Zr80   2.390       .  S
O77         Zr97   2.415       .  S
O77         H114   0.965       .  S
O78         Zr81   2.404       .  S
O78         Zr97   2.435       .  S
Zr79        O104   2.435       .  S
Zr79         O98   2.419       .  S
Zr79        O106   2.495       .  S
Zr79         O94   2.571       .  S
Zr79         O85   2.445       .  S
Zr79         O86   2.411       .  S
Zr79         O87   2.365       .  S
Zr79         O88   2.391       .  S
Zr80         O99   2.440       .  S
Zr80         O92   2.434   1_655  S
Zr80         O93   2.361       .  S
Zr80         O86   2.385       .  S
Zr80         O87   2.388       .  S
Zr81         O83   2.435       .  S
Zr81        O105   2.437       .  S
Zr81        O107   2.434       .  S
Zr81         O85   2.407       .  S
Zr81         O88   2.366       .  S
Zr82        O108   2.437       .  S
Zr82        O109   2.436   1_655  S
Zr82         O84   2.440   1_655  S
Zr82         O85   2.430       .  S
Zr82         O86   2.410       .  S
O83         H120   0.990       .  S
O84         H115   0.990       .  S
O84         H129   0.990       .  S
O86         H112   0.964       .  S
O87         Zr97   2.385       .  S
O88         Zr97   2.323       .  S
O88         H113   0.961       .  S
C89         C209   1.495       .  S
C90         C669   1.488       .  S
C91         C617   1.496       .  S
O92         H128   0.990       .  S
O93          C95   1.262       .  A
O94          C95   1.313       .  A
C95         C597   1.504   1_655  S
O96         Zr97   2.440       .  S
O96         H125   0.990       .  S
Zr97        O100   2.436       .  S
Zr97        O101   2.438       .  S
Zr97        O102   2.521       .  S
O98         C103   1.283       .  A
O99         H116   0.989       .  S
O99         H131   0.990       .  S
O100        H117   0.990       .  S
O101        H121   0.990       .  S
O101        H130   0.990       .  S
O102        C103   1.301       .  A
C103        C647   1.491       .  S
O104        H123   0.990       .  S
O104        H127   0.990       .  S
O105        H119   0.990       .  S
O105        H126   0.990       .  S
O106        C110   1.296       .  A
O107        C110   1.288       .  A
O108        H118   0.990       .  S
O109        H122   0.990   1_455  S
C110        C663   1.481       .  S
Zr133       O134   2.435       .  S
Zr133       O135   2.449       .  S
Zr133       O136   2.546       .  S
Zr133       O139   2.473       .  S
Zr133       O141   2.380       .  S
Zr133       O142   2.398       .  S
Zr133       O143   2.421       .  S
Zr133       O144   2.445       .  S
O134        H190   0.990       .  S
O134        H198   0.989       .  S
O135        C155   1.286       .  A
O136        C157   1.305       .  A
O137       Zr147   2.460       .  S
O137        C156   1.292       .  A
O138       Zr146   2.358       .  S
O138        C157   1.261       .  A
O139        C156   1.293       .  A
O140       Zr148   2.503       .  S
O140        C155   1.301       .  A
O141       Zr146   2.401       .  S
O141       Zr148   2.372       .  S
O142       Zr147   2.362       .  S
O142       Zr148   2.337       .  S
O142        H177   0.960       .  S
O143       Zr146   2.408       .  S
O143       Zr163   2.405       .  S
O143        H180   0.967       .  S
O144       Zr147   2.406       .  S
O144       Zr163   2.405       .  S
Zr145       O170   2.438   1_554  S
Zr145       O164   2.461       .  S
Zr145       O172   2.436       .  S
Zr145       O160   2.507       .  S
Zr145       O151   2.435       .  S
Zr145       O152   2.422       .  S
Zr145       O153   2.373       .  S
Zr145       O154   2.394       .  S
Zr146       O165   2.444       .  S
Zr146       O158   2.435       .  S
Zr146       O159   2.375       .  S
Zr146       O152   2.392       .  S
Zr146       O153   2.387       .  S
Zr147       O149   2.436       .  S
Zr147       O171   2.437       .  S
Zr147       O173   2.459       .  S
Zr147       O151   2.396       .  S
Zr147       O154   2.377       .  S
Zr148       O174   2.436       .  S
Zr148       O175   2.436       .  S
Zr148       O150   2.438       .  S
Zr148       O151   2.424       .  S
Zr148       O152   2.430       .  S
O149        H186   0.990       .  S
O150        H181   0.990   1_655  S
O150        H195   0.989   1_655  S
O152        H178   0.965       .  S
O153       Zr163   2.375       .  S
O154       Zr163   2.357       .  S
O154        H179   0.966       .  S
C155        C207   1.501       .  S
C156        C671   1.484       .  S
C157        C393   1.493       .  S
O158        H194   0.990       .  S
O159        C161   1.264       .  A
O160        C161   1.295       .  A
C161        C387   1.489       .  S
O162       Zr163   2.434       .  S
O162        H191   0.990       .  S
Zr163       O166   2.435       .  S
Zr163       O167   2.439       .  S
Zr163       O168   2.454       .  S
O164        C169   1.288       .  A
O165        H182   0.989       .  S
O165        H197   0.990       .  S
O166        H183   0.990       .  S
O167        H187   0.990       .  S
O167        H196   0.989       .  S
O168        C169   1.288       .  A
C169        C629   1.485       .  S
O170        H189   0.990       .  S
O170        H193   0.990       .  S
O171        H185   0.990       .  S
O171        H192   0.990       .  S
O172        C176   1.284       .  A
O173        C176   1.290       .  A
O174        H184   0.990       .  S
O175        H188   0.990       .  S
C176        C203   1.473   1_554  S
C199       C1766   1.443       .  S
C199        N200   1.355       .  A
C199        N204   1.351       .  A
N200        C201   1.351       .  A
C201        C239   1.474       .  S
C201        N202   1.373       .  A
N202        C203   1.365       .  A
C203        N204   1.345       .  A
C205       C1748   1.456       .  S
C205        N206   1.350   1_455  A
C205        N210   1.350   1_455  A
N206        C207   1.352       .  A
C207        N208   1.385       .  A
N208        C209   1.384       .  A
C209        N210   1.349       .  A
Zr211       O212   2.435       .  S
Zr211       O213   2.427       .  S
Zr211       O214   2.529       .  S
Zr211       O217   2.468       .  S
Zr211       O219   2.383       .  S
Zr211       O220   2.396       .  S
Zr211       O221   2.414       .  S
Zr211       O222   2.435       .  S
O212        H268   0.990       .  S
O212        H276   0.990       .  S
O213        C233   1.283       .  A
O214        C235   1.299       .  A
O215       Zr225   2.470       .  S
O215        C234   1.295       .  A
O216       Zr224   2.353       .  S
O216        C235   1.261       .  A
O217        C234   1.290       .  A
O218       Zr226   2.473       .  S
O218        C233   1.293       .  A
O219       Zr224   2.397       .  S
O219       Zr226   2.370       .  S
O220       Zr225   2.379       .  S
O220       Zr226   2.347       .  S
O220        H255   0.964       .  S
O221       Zr224   2.396       .  S
O221       Zr241   2.409       .  S
O221        H258   0.965       .  S
O222       Zr225   2.409       .  S
O222       Zr241   2.411       .  S
Zr223       O248   2.433       .  S
Zr223       O242   2.398       .  S
Zr223       O250   2.443       .  S
Zr223       O238   2.493       .  S
Zr223       O229   2.429       .  S
Zr223       O230   2.408       .  S
Zr223       O231   2.374       .  S
Zr223       O232   2.395       .  S
Zr224       O243   2.439       .  S
Zr224       O236   2.437   1_556  S
Zr224       O237   2.364       .  S
Zr224       O230   2.399       .  S
Zr224       O231   2.376       .  S
Zr225       O227   2.437       .  S
Zr225       O249   2.433       .  S
Zr225       O251   2.494       .  S
Zr225       O229   2.404       .  S
Zr225       O232   2.363       .  S
Zr226       O252   2.436       .  S
Zr226       O253   2.437       .  S
Zr226       O228   2.436   1_556  S
Zr226       O229   2.418       .  S
Zr226       O230   2.410       .  S
O227        H264   0.990       .  S
O228        H259   0.990       .  S
O228        H273   0.990       .  S
O230        H256   0.965       .  S
O231       Zr241   2.364       .  S
O232       Zr241   2.351       .  S
O232        H257   0.965       .  S
C233        C345   1.478       .  S
C234        C353   1.494       .  S
C235        C627   1.487   1_556  S
O236        H272   0.991       .  S
O237        C239   1.263       .  A
O238        C239   1.292       .  A
O240       Zr241   2.436       .  S
O240        H269   0.990       .  S
Zr241       O244   2.437       .  S
Zr241       O245   2.438       .  S
Zr241       O246   2.468       .  S
O242        C247   1.276       .  A
O243        H260   0.990       .  S
O243        H275   0.989       .  S
O244        H261   0.990       .  S
O245        H265   0.990       .  S
O245        H274   0.990       .  S
O246        C247   1.294       .  A
C247        C657   1.463       .  S
O248        H267   0.990       .  S
O248        H271   0.990       .  S
O249        H263   0.989       .  S
O249        H270   0.990       .  S
O250        C254   1.286       .  A
O251        C254   1.299       .  A
O252        H262   0.991       .  S
O253        H266   0.990       .  S
C254        C651   1.495       .  S
Zr277       O278   2.435       .  S
Zr277       O279   2.463       .  S
Zr277       O280   2.554       .  S
Zr277       O283   2.490       .  S
Zr277       O285   2.380       .  S
Zr277       O286   2.392       .  S
Zr277       O287   2.421       .  S
Zr277       O288   2.443       .  S
O278        H334   0.990       .  S
O278        H342   0.990       .  S
O279        C299   1.288       .  A
O280        C301   1.308       .  A
O281       Zr291   2.435       .  S
O281        C300   1.286       .  A
O282       Zr290   2.350   1_565  S
O282        C301   1.268   1_565  A
O283        C300   1.295       .  A
O284       Zr292   2.457       .  S
O284        C299   1.291       .  A
O285       Zr290   2.400       .  S
O285       Zr292   2.383       .  S
O286       Zr291   2.372       .  S
O286       Zr292   2.342       .  S
O286        H321   0.965       .  S
O287       Zr290   2.381       .  S
O287       Zr307   2.406       .  S
O287        H324   0.967       .  S
O288       Zr291   2.395       .  S
O288       Zr307   2.425       .  S
Zr289       O314   2.436       .  S
Zr289       O308   2.467       .  S
Zr289       O316   2.468       .  S
Zr289       O304   2.562       .  S
Zr289       O295   2.437       .  S
Zr289       O296   2.404       .  S
Zr289       O297   2.380       .  S
Zr289       O298   2.398       .  S
Zr290       O309   2.439   1_545  S
Zr290       O302   2.434       .  S
Zr290       O303   2.376       .  S
Zr290       O296   2.386       .  S
Zr290       O297   2.382       .  S
Zr291       O293   2.434       .  S
Zr291       O315   2.437       .  S
Zr291       O317   2.433       .  S
Zr291       O295   2.408       .  S
Zr291       O298   2.368       .  S
Zr292       O318   2.436       .  S
Zr292       O319   2.436       .  S
Zr292       O294   2.436       .  S
Zr292       O295   2.411       .  S
Zr292       O296   2.395       .  S
O293        H330   0.990   1_556  S
O294        H325   0.991       .  S
O294        H339   0.990       .  S
O296        H322   0.963       .  S
O297       Zr307   2.385       .  S
O298       Zr307   2.342       .  S
O298        H323   0.964       .  S
C299        C351   1.490       .  S
C300        C347   1.487       .  S
C301        C357   1.497   1_545  S
O302        H338   0.990       .  S
O303        C305   1.272       .  A
O304        C305   1.312       .  A
C305        C623   1.506       .  S
O306       Zr307   2.439       .  S
O306        H335   0.990   1_546  S
Zr307       O310   2.436   1_545  S
Zr307       O311   2.439   1_556  S
Zr307       O312   2.476       .  S
O308        C313   1.291       .  A
O309        H326   0.990       .  S
O309        H341   0.990       .  S
O310        H327   0.990       .  S
O311        H331   0.990       .  S
O311        H340   0.990       .  S
O312        C313   1.293       .  A
C313        C375   1.496       .  S
O314        H333   0.990       .  S
O314        H337   0.990       .  S
O315        H329   0.990       .  S
O315        H336   0.991       .  S
O316        C320   1.291       .  A
O317        C320   1.286       .  A
O318        H328   0.990       .  S
O319        H332   0.990       .  S
C320        C369   1.470       .  S
C343       C1730   1.456       .  S
C343        N344   1.350       .  A
C343        N348   1.354       .  A
N344        C345   1.351   1_554  A
C345        N346   1.376       .  A
N346        C347   1.374       .  A
C347        N348   1.358   1_556  A
C349       C1712   1.455       .  S
C349        N350   1.348       .  A
C349        N354   1.350       .  A
N350        C351   1.354       .  A
C351        N352   1.381       .  A
N352        C353   1.381       .  A
C353        N354   1.355       .  A
C355       C1694   1.436       .  S
C355        N356   1.368       .  A
C355        N360   1.352       .  A
N356        C357   1.361       .  A
C357        N358   1.374       .  A
N358        C359   1.363       .  A
C359        C491   1.482       .  S
C359        N360   1.335       .  A
C361       C1676   1.450       .  S
C361        N362   1.358   1_655  A
C361        N366   1.354       .  A
N362        C363   1.355       .  A
C363        C565   1.505   1_545  S
C363        N364   1.376       .  A
N364        C365   1.384       .  A
C365        C421   1.496       .  S
C365        N366   1.348   1_455  A
C367       C1658   1.447       .  S
C367        N368   1.348       .  A
C367        N372   1.350       .  A
N368        C369   1.351       .  A
C369        N370   1.373       .  A
N370        C371   1.373   1_556  A
C371        C440   1.478       .  S
C371        N372   1.353   1_554  A
C373       C1643   1.449       .  S
C373        N374   1.352   1_554  A
C373        N378   1.352   1_565  A
N374        C375   1.351   1_565  A
C375        N376   1.379   1_556  A
N376        C377   1.382       .  A
C377        C433   1.491       .  S
C377        N378   1.353       .  A
C379       C1622   1.460       .  S
C379        N380   1.359       .  A
C379        N384   1.360   1_545  A
N380        C381   1.355       .  A
C381        C425   1.490       .  S
C381        N382   1.379       .  A
N382        C383   1.369   1_545  A
C383        C572   1.504       .  S
C383        N384   1.356       .  A
C385       C1604   1.457       .  S
C385        N386   1.354   1_556  A
C385        N390   1.357   1_556  A
N386        C387   1.352       .  A
C387        N388   1.380       .  A
N388        C389   1.373       .  A
C389        C420   1.506   1_655  S
C389        N390   1.360       .  A
C391       C1586   1.455       .  S
C391        N392   1.358       .  A
C391        N396   1.355       .  A
N392        C393   1.352   1_455  A
C393        N394   1.382   1_655  A
N394        C395   1.371       .  A
C395        C419   1.502       .  S
C395        N396   1.352       .  A
Zr397       O398   2.436   1_455  S
Zr397       O399   2.490       .  S
Zr397       O400   2.558       .  S
Zr397       O403   2.492       .  S
Zr397       O405   2.372       .  S
Zr397       O406   2.397       .  S
Zr397       O407   2.430       .  S
Zr397       O408   2.445       .  S
O398        H454   0.990       .  S
O398        H462   0.990       .  S
O399        C419   1.293       .  A
O400        C421   1.307       .  A
O401       Zr411   2.458       .  S
O401        C420   1.291       .  A
O402       Zr410   2.352       .  S
O402        C421   1.259       .  A
O403        C420   1.296       .  A
O404       Zr412   2.446       .  S
O404        C419   1.287       .  A
O405       Zr410   2.398       .  S
O405       Zr412   2.368       .  S
O406       Zr411   2.384       .  S
O406       Zr412   2.366       .  S
O406        H441   0.965       .  S
O407       Zr410   2.402       .  S
O407       Zr427   2.426       .  S
O407        H444   0.964       .  S
O408       Zr411   2.406       .  S
O408       Zr427   2.422       .  S
Zr409       O434   2.435       .  S
Zr409       O428   2.418       .  S
Zr409       O436   2.443       .  S
Zr409       O424   2.537       .  S
Zr409       O415   2.432       .  S
Zr409       O416   2.407       .  S
Zr409       O417   2.361       .  S
Zr409       O418   2.399       .  S
Zr410       O429   2.441       .  S
Zr410       O422   2.437       .  S
Zr410       O423   2.367       .  S
Zr410       O416   2.391       .  S
Zr410       O417   2.383       .  S
Zr411       O413   2.437       .  S
Zr411       O435   2.436       .  S
Zr411       O437   2.461       .  S
Zr411       O415   2.403       .  S
Zr411       O418   2.380       .  S
Zr412       O438   2.436       .  S
Zr412       O439   2.436       .  S
Zr412       O414   2.437       .  S
Zr412       O415   2.408       .  S
Zr412       O416   2.421       .  S
O413        H450   0.991   1_554  S
O414        H445   0.991       .  S
O414        H459   0.990       .  S
O416        H442   0.965       .  S
O417       Zr427   2.363       .  S
O418       Zr427   2.341       .  S
O418        H443   0.963       .  S
O422        H458   0.991       .  S
O423        C425   1.264       .  A
O424        C425   1.303       .  A
O426       Zr427   2.438       .  S
O426        H455   0.991       .  S
Zr427       O430   2.437       .  S
Zr427       O431   2.440       .  S
Zr427       O432   2.509       .  S
O428        C433   1.280       .  A
O429        H446   0.989       .  S
O429        H461   0.991       .  S
O430        H447   0.990       .  S
O431        H451   0.990       .  S
O431        H460   0.990       .  S
O432        C433   1.300       .  A
O434        H453   0.991       .  S
O434        H457   0.989       .  S
O435        H449   0.990       .  S
O435        H456   0.990       .  S
O436        C440   1.286       .  A
O437        C440   1.292       .  A
O438        H448   0.990       .  S
O439        H452   0.990       .  S
Zr463       O464   2.437       .  S
Zr463       O465   2.446       .  S
Zr463       O466   2.559       .  S
Zr463       O469   2.474       .  S
Zr463       O471   2.371       .  S
Zr463       O472   2.400       .  S
Zr463       O473   2.422       .  S
Zr463       O474   2.444       .  S
O464        H520   0.991       .  S
O464        H528   0.989       .  S
O465        C485   1.284       .  A
O466        C487   1.310       .  A
O467       Zr477   2.468       .  S
O467        C486   1.297       .  A
O468       Zr476   2.365       .  S
O468        C487   1.267       .  A
O469        C486   1.291       .  A
O470       Zr478   2.533       .  S
O470        C485   1.307       .  A
O471       Zr476   2.399       .  S
O471       Zr478   2.367       .  S
O472       Zr477   2.373       .  S
O472       Zr478   2.331       .  S
O472        H507   0.962       .  S
O473       Zr476   2.389       .  S
O473       Zr493   2.411       .  S
O473        H510   0.966       .  S
O474       Zr477   2.406       .  S
O474       Zr493   2.415       .  S
Zr475       O500   2.439       .  S
Zr475       O494   2.486       .  S
Zr475       O502   2.474       .  S
Zr475       O490   2.515       .  S
Zr475       O481   2.447       .  S
Zr475       O482   2.429       .  S
Zr475       O483   2.383       .  S
Zr475       O484   2.393       .  S
Zr476       O495   2.440       .  S
Zr476       O488   2.434       .  S
Zr476       O489   2.367       .  S
Zr476       O482   2.395       .  S
Zr476       O483   2.390       .  S
Zr477       O479   2.433       .  S
Zr477       O501   2.439       .  S
Zr477       O503   2.478       .  S
Zr477       O481   2.395       .  S
Zr477       O484   2.376       .  S
Zr478       O504   2.433       .  S
Zr478       O505   2.435       .  S
Zr478       O480   2.439       .  S
Zr478       O481   2.433       .  S
Zr478       O482   2.433       .  S
O479        H516   0.990       .  S
O480        H511   0.990   1_565  S
O480        H525   0.990       .  S
O482        H508   0.967       .  S
O483       Zr493   2.376       .  S
O484       Zr493   2.368       .  S
O484        H509   0.967       .  S
C485        C603   1.514       .  S
C486        C609   1.495       .  S
C487        C621   1.502       .  S
O488        H524   0.990       .  S
O489        C491   1.269       .  A
O490        C491   1.302       .  A
O492       Zr493   2.439       .  S
O492        H521   0.991       .  S
Zr493       O496   2.438       .  S
Zr493       O497   2.438       .  S
Zr493       O498   2.460       .  S
O494        C499   1.292       .  A
O495        H512   0.991       .  S
O495        H527   0.990       .  S
O496        H513   0.990       .  S
O497        H517   0.990       .  S
O497        H526   0.990       .  S
O498        C499   1.290       .  A
C499        C633   1.506       .  S
O500        H519   0.990       .  S
O500        H523   0.991       .  S
O501        H515   0.991       .  S
O501        H522   0.991       .  S
O502        C506   1.289       .  A
O503        C506   1.296       .  A
O504        H514   0.990       .  S
O505        H518   0.990       .  S
C506        C641   1.511       .  S
Zr529       O530   2.439       .  S
Zr529       O531   2.445       .  S
Zr529       O532   2.542       .  S
Zr529       O535   2.480       .  S
Zr529       O537   2.381       .  S
Zr529       O538   2.397       .  S
Zr529       O539   2.426       .  S
Zr529       O540   2.446       .  S
O530        H586   0.990       .  S
O530        H594   0.990       .  S
O531        C551   1.284       .  A
O532        C553   1.303       .  A
O533       Zr543   2.498       .  S
O533        C552   1.301       .  A
O534       Zr542   2.383       .  S
O534        C553   1.262       .  A
O535        C552   1.292       .  A
O536       Zr544   2.476       .  S
O536        C551   1.296       .  A
O537       Zr542   2.395       .  S
O537       Zr544   2.362       .  S
O538       Zr543   2.366       .  S
O538       Zr544   2.345       .  S
O538        H573   0.964       .  S
O539       Zr542   2.398       .  S
O539       Zr559   2.420       .  S
O539        H576   0.966       .  S
O540       Zr543   2.403       .  S
O540       Zr559   2.424       .  S
Zr541       O566   2.438       .  S
Zr541       O560   2.484       .  S
Zr541       O568   2.472       .  S
Zr541       O556   2.533       .  S
Zr541       O547   2.435       .  S
Zr541       O548   2.422       .  S
Zr541       O549   2.378       .  S
Zr541       O550   2.402       .  S
Zr542       O561   2.437       .  S
Zr542       O554   2.439       .  S
Zr542       O555   2.365       .  S
Zr542       O548   2.390       .  S
Zr542       O549   2.393       .  S
Zr543       O545   2.436   1_565  S
Zr543       O567   2.437       .  S
Zr543       O569   2.475       .  S
Zr543       O547   2.406       .  S
Zr543       O550   2.394       .  S
Zr544       O570   2.436       .  S
Zr544       O571   2.434       .  S
Zr544       O546   2.438       .  S
Zr544       O547   2.409       .  S
Zr544       O548   2.414       .  S
O545        H582   0.991       .  S
O546        H577   0.990       .  S
O546        H591   0.990       .  S
O548        H574   0.967       .  S
O549       Zr559   2.381       .  S
O550       Zr559   2.369       .  S
O550        H575   0.964       .  S
C551        C611   1.490       .  S
C552        C605   1.513       .  S
C553        C599   1.501       .  S
O554        H590   0.991       .  S
O555        C557   1.268       .  A
O556        C557   1.303       .  A
C557        C615   1.495       .  S
O558       Zr559   2.439       .  S
O558        H587   0.990   1_565  S
Zr559       O562   2.438       .  S
Zr559       O563   2.438   1_565  S
Zr559       O564   2.472       .  S
O560        C565   1.294       .  A
O561        H578   0.990       .  S
O561        H593   0.990       .  S
O562        H579   0.990       .  S
O563        H583   0.990       .  S
O563        H592   0.990       .  S
O564        C565   1.290       .  A
O566        H585   0.991       .  S
O566        H589   0.990       .  S
O567        H581   0.990       .  S
O567        H588   0.990       .  S
O568        C572   1.292       .  A
O569        C572   1.295       .  A
O570        H580   0.990       .  S
O571        H584   0.990       .  S
C595       C1568   1.447   1_455  S
C595        N596   1.357   1_455  A
C595        N600   1.353       .  A
N596        C597   1.348   1_655  A
C597        N598   1.385       .  A
N598        C599   1.382       .  A
C599        N600   1.346       .  A
C601       C1550   1.454       .  S
C601        N602   1.353   1_545  A
C601        N606   1.347   1_545  A
N602        C603   1.356       .  A
C603        N604   1.393       .  A
N604        C605   1.388       .  A
C605        N606   1.349       .  A
C607       C1532   1.452       .  S
C607        N608   1.345       .  A
C607        N612   1.346       .  A
N608        C609   1.350       .  A
C609        N610   1.382       .  A
N610        C611   1.385       .  A
C611        N612   1.352       .  A
C613       C1514   1.433       .  S
C613        N614   1.362       .  A
C613        N618   1.363   1_455  A
N614        C615   1.349       .  A
C615        N616   1.370       .  A
N616        C617   1.371   1_455  A
C617        N618   1.345       .  A
C619       C1499   1.456       .  S
C619        N620   1.364   1_545  A
C619        N624   1.367       .  A
N620        C621   1.351       .  A
C621        N622   1.374       .  A
N622        C623   1.373   1_565  A
C623        N624   1.352       .  A
C625       C1478   1.435       .  S
C625        N626   1.355       .  A
C625        N630   1.348       .  A
N626        C627   1.351       .  A
C627        N628   1.381       .  A
N628        C629   1.372       .  A
C629        N630   1.346       .  A
C631       C1460   1.458       .  S
C631        N632   1.358       .  A
C631        N636   1.351       .  A
N632        C633   1.358       .  A
C633        N634   1.375       .  A
N634        C635   1.382       .  A
C635        N636   1.345       .  A
C637       C1442   1.434       .  S
C637        N638   1.351       .  A
C637        N642   1.346       .  A
N638        C639   1.351       .  A
C639        N640   1.393       .  A
N640        C641   1.382       .  A
C641        N642   1.347       .  A
C643       C1424   1.465       .  S
C643        N644   1.347       .  A
C643        N648   1.352       .  A
N644        C645   1.349       .  A
C645        N646   1.383       .  A
N646        C647   1.385       .  A
C647        N648   1.354       .  A
C649       C1406   1.455       .  S
C649        N650   1.352       .  A
C649        N654   1.351       .  A
N650        C651   1.353       .  A
C651        N652   1.381       .  A
N652        C653   1.381       .  A
C653        N654   1.351       .  A
C655       C1388   1.441       .  S
C655        N656   1.341       .  A
C655        N660   1.349       .  A
N656        C657   1.347       .  A
C657        N658   1.374       .  A
N658        C659   1.371       .  A
C659        N660   1.355       .  A
C661       C1370   1.453       .  S
C661        N662   1.344       .  A
C661        N666   1.349       .  A
N662        C663   1.350       .  A
C663        N664   1.382       .  A
N664        C665   1.382       .  A
C665        N666   1.355       .  A
C667       C1355   1.451       .  S
C667        N668   1.349       .  A
C667        N672   1.344       .  A
N668        C669   1.355       .  A
C669        N670   1.383       .  A
N670        C671   1.381       .  A
C671        N672   1.348       .  A
Zr673       O674   2.434       .  S
Zr673       O675   2.442       .  S
Zr673       O676   2.468       .  S
Zr673       O679   2.528       .  S
Zr673       O681   2.381       .  S
Zr673       O682   2.391       .  S
Zr673       O683   2.437       .  S
Zr673       O684   2.412       .  S
O674        H730   0.990       .  S
O674        H738   0.990       .  S
O675        C695   1.285       .  A
O676        C697   1.292       .  A
O677       Zr687   2.358       .  S
O677        C696   1.263       .  A
O678       Zr686   2.441       .  S
O678        C697   1.287       .  A
O679        C696   1.300       .  A
O680       Zr688   2.467       .  S
O680        C695   1.292       .  A
O681       Zr686   2.363       .  S
O681       Zr688   2.340       .  S
O682       Zr687   2.393       .  S
O682       Zr688   2.373       .  S
O682        H717   0.965       .  S
O683       Zr686   2.401       .  S
O683       Zr703   2.411       .  S
O683        H720   0.962       .  S
O684       Zr687   2.389       .  S
O684       Zr703   2.408       .  S
Zr685       O710   2.437       .  S
Zr685       O704   2.482       .  S
Zr685       O712   2.554       .  S
Zr685       O700   2.466       .  S
Zr685       O691   2.414       .  S
Zr685       O692   2.445       .  S
Zr685       O693   2.403       .  S
Zr685       O694   2.379       .  S
Zr686       O705   2.435       .  S
Zr686       O698   2.438       .  S
Zr686       O699   2.419       .  S
Zr686       O692   2.409       .  S
Zr686       O693   2.390       .  S
Zr687       O689   2.439       .  S
Zr687       O711   2.444       .  S
Zr687       O713   2.341       .  S
Zr687       O691   2.390       .  S
Zr687       O694   2.415       .  S
Zr688       O714   2.440       .  S
Zr688       O715   2.434       .  S
Zr688       O690   2.437       .  S
Zr688       O691   2.418       .  S
Zr688       O692   2.403       .  S
O689        H726   0.990       .  S
O690        H721   0.990       .  S
O690        H735   0.990       .  S
O692        H718   0.965       .  S
O693       Zr703   2.363       .  S
O694       Zr703   2.369       .  S
O694        H719   0.966       .  S
C695       C1263   1.481       .  S
C696       C1323   1.490       .  S
C697       C1271   1.482       .  S
O698        H734   0.989       .  S
O699        C701   1.284       .  A
O700        C701   1.290       .  A
C701       C1247   1.474       .  S
O702       Zr703   2.438       .  S
O702        H731   0.991       .  S
Zr703       O706   2.437       .  S
Zr703       O707   2.442       .  S
Zr703       O708   2.458       .  S
O704        C709   1.292       .  A
O705        H722   0.989       .  S
O705        H737   0.991       .  S
O706        H723   0.990       .  S
O707        H727   0.990       .  S
O707        H736   0.990       .  S
O708        C709   1.289       .  A
C709       C1251   1.501       .  S
O710        H729   0.990       .  S
O710        H733   0.990       .  S
O711        H725   0.990       .  S
O711        H732   0.989       .  S
O712        C716   1.303       .  A
O713        C716   1.256       .  A
O714        H724   0.990       .  S
O715        H728   0.990       .  S
C716        C957   1.491       .  S
Zr739       O740   2.436       .  S
Zr739       O741   2.441       .  S
Zr739       O742   2.474       .  S
Zr739       O745   2.545       .  S
Zr739       O747   2.394       .  S
Zr739       O748   2.382       .  S
Zr739       O749   2.436       .  S
Zr739       O750   2.400       .  S
O740        H796   0.991       .  S
O740        H804   0.990       .  S
O741        C761   1.285       .  A
O742        C763   1.292       .  A
O743       Zr753   2.383       .  S
O743        C762   1.274       .  A
O744       Zr752   2.441       .  S
O744        C763   1.289       .  A
O745        C762   1.309       .  A
O746       Zr754   2.450       .  S
O746        C761   1.288       .  A
O747       Zr752   2.377       .  S
O747       Zr754   2.349       .  S
O748       Zr753   2.389       .  S
O748       Zr754   2.385       .  S
O748        H783   0.962       .  S
O749       Zr752   2.409       .  S
O749       Zr769   2.407       .  S
O749        H786   0.963       .  S
O750       Zr753   2.389       .  S
O750       Zr769   2.411       .  S
Zr751       O776   2.434   1_545  S
Zr751       O770   2.434       .  S
Zr751       O778   2.515       .  S
Zr751       O766   2.457       .  S
Zr751       O757   2.409       .  S
Zr751       O758   2.433       .  S
Zr751       O759   2.386       .  S
Zr751       O760   2.394       .  S
Zr752       O771   2.435       .  S
Zr752       O764   2.435       .  S
Zr752       O765   2.459       .  S
Zr752       O758   2.399       .  S
Zr752       O759   2.369       .  S
Zr753       O755   2.436       .  S
Zr753       O777   2.439       .  S
Zr753       O779   2.379       .  S
Zr753       O757   2.382       .  S
Zr753       O760   2.403       .  S
Zr754       O780   2.436       .  S
Zr754       O781   2.435       .  S
Zr754       O756   2.438       .  S
Zr754       O757   2.398       .  S
Zr754       O758   2.409       .  S
O755        H792   0.990       .  S
O756        H787   0.991       .  S
O756        H801   0.990       .  S
O758        H784   0.970       .  S
O759       Zr769   2.346       .  S
O760       Zr769   2.380       .  S
O760        H785   0.965       .  S
C761        C807   1.477       .  S
C762       C1293   1.503       .  S
C763       C1317   1.487       .  S
O764        H800   0.990       .  S
O765        C767   1.292       .  A
O766        C767   1.289       .  A
C767       C1311   1.487   1_545  S
O768       Zr769   2.435       .  S
O768        H797   0.990       .  S
Zr769       O772   2.436       .  S
Zr769       O773   2.437       .  S
Zr769       O774   2.469       .  S
O770        C775   1.282       .  A
O771        H788   0.990       .  S
O771        H803   0.990       .  S
O772        H789   0.990       .  S
O773        H793   0.990       .  S
O773        H802   0.989       .  S
O774        C775   1.293       .  A
C775       C1281   1.483       .  S
O776        H795   0.991       .  S
O776        H799   0.990       .  S
O777        H791   0.988       .  S
O777        H798   0.990       .  S
O778        C782   1.297       .  A
O779        C782   1.267       .  A
O780        H790   0.990       .  S
O781        H794   0.990       .  S
C782       C1257   1.486       .  S
C805       C1715   1.449       .  S
C805        N806   1.346       .  A
C805        N810   1.349       .  A
N806        C807   1.349       .  A
C807        N808   1.376       .  A
N808        C809   1.377       .  A
C809        C835   1.482       .  S
C809        N810   1.357       .  A
Zr811       O812   2.436       .  S
Zr811       O813   2.446       .  S
Zr811       O814   2.455       .  S
Zr811       O817   2.536       .  S
Zr811       O819   2.392       .  S
Zr811       O820   2.375       .  S
Zr811       O821   2.441       .  S
Zr811       O822   2.407       .  S
O812        H868   0.990       .  S
O812        H876   0.991       .  S
O813        C833   1.286       .  A
O814        C835   1.288       .  A
O815       Zr825   2.370       .  S
O815        C834   1.272       .  A
O816       Zr824   2.454       .  S
O816        C835   1.292       .  A
O817        C834   1.305       .  A
O818       Zr826   2.463       .  S
O818        C833   1.291       .  A
O819       Zr824   2.378       .  S
O819       Zr826   2.343       .  S
O820       Zr825   2.385       .  S
O820       Zr826   2.380       .  S
O820        H855   0.966       .  S
O821       Zr824   2.402       .  S
O821       Zr841   2.406       .  S
O821        H858   0.966       .  S
O822       Zr825   2.378       .  S
O822       Zr841   2.413       .  S
Zr823       O848   2.437       .  S
Zr823       O842   2.467       .  S
Zr823       O850   2.558       .  S
Zr823       O838   2.487       .  S
Zr823       O829   2.406       .  S
Zr823       O830   2.440       .  S
Zr823       O831   2.398       .  S
Zr823       O832   2.384       .  S
Zr824       O843   2.435       .  S
Zr824       O836   2.438       .  S
Zr824       O837   2.459       .  S
Zr824       O830   2.404       .  S
Zr824       O831   2.384       .  S
Zr825       O827   2.436       .  S
Zr825       O849   2.439       .  S
Zr825       O851   2.356       .  S
Zr825       O829   2.383       .  S
Zr825       O832   2.390       .  S
Zr826       O852   2.435       .  S
Zr826       O853   2.435       .  S
Zr826       O828   2.438       .  S
Zr826       O829   2.411       .  S
Zr826       O830   2.413       .  S
O827        H864   0.990       .  S
O828        H859   0.990       .  S
O828        H873   0.990       .  S
O830        H856   0.963       .  S
O831       Zr841   2.357       .  S
O832       Zr841   2.388       .  S
O832        H857   0.968       .  S
C833       C1319   1.486       .  S
C834        C881   1.497       .  S
O836        H872   0.990       .  S
O837        C839   1.291       .  A
O838        C839   1.294       .  A
C839       C1325   1.497       .  S
O840       Zr841   2.435       .  S
O840        H869   0.990       .  S
Zr841       O844   2.436       .  S
Zr841       O845   2.437       .  S
Zr841       O846   2.454       .  S
O842        C847   1.291       .  A
O843        H860   0.989       .  S
O843        H875   0.990       .  S
O844        H861   0.990       .  S
O845        H865   0.990       .  S
O845        H874   0.989       .  S
O846        C847   1.287       .  A
C847        C959   1.488       .  S
O848        H867   0.991       .  S
O848        H871   0.990       .  S
O849        H863   0.989       .  S
O849        H870   0.990       .  S
O850        C854   1.308       .  A
O851        C854   1.269       .  A
O852        H862   0.991       .  S
O853        H866   0.990       .  S
C854       C1299   1.504       .  S
C877       C1352   1.439       .  S
C877        N878   1.364       .  A
C877        N882   1.365       .  A
N878        C879   1.347       .  A
C879        C932   1.494       .  S
C879        N880   1.369       .  A
N880        C881   1.368       .  A
C881        N882   1.353       .  A
C883       C1463   1.446   1_554  S
C883        N884   1.359       .  A
C883        N888   1.351       .  A
N884        C885   1.356       .  A
C885        C984   1.487       .  S
C885        N886   1.378       .  A
N886        C887   1.367       .  A
C887        C917   1.484       .  S
C887        N888   1.349       .  A
Zr889       O890   2.436       .  S
Zr889       O891   2.443       .  S
Zr889       O892   2.455       .  S
Zr889       O895   2.526       .  S
Zr889       O897   2.391       .  S
Zr889       O898   2.384       .  S
Zr889       O899   2.427       .  S
Zr889       O900   2.398       .  S
O890        H946   0.990       .  S
O890        H954   0.990       .  S
O891        C911   1.286       .  A
O892        C913   1.289       .  A
O893       Zr903   2.368       .  S
O893        C912   1.268       .  A
O894       Zr902   2.434       .  S
O894        C913   1.285       .  A
O895        C912   1.304       .  A
O896       Zr904   2.496       .  S
O896        C911   1.296       .  A
O897       Zr902   2.381       .  S
O897       Zr904   2.346       .  S
O898       Zr903   2.380       .  S
O898       Zr904   2.377       .  S
O898        H933   0.968       .  S
O899       Zr902   2.405       .  S
O899       Zr919   2.402       .  S
O899        H936   0.961       .  S
O900       Zr903   2.385       .  S
O900       Zr919   2.404       .  S
Zr901       O926   2.438       .  S
Zr901       O920   2.479       .  S
Zr901       O928   2.551       .  S
Zr901       O916   2.491       .  S
Zr901       O908   2.438       .  S
Zr901       O909   2.394       .  S
Zr901       O910   2.373       .  S
Zr901       O907   2.337       .  S
Zr902       O921   2.436       .  S
Zr902       O914   2.436       .  S
Zr902       O915   2.434       .  S
Zr902       O908   2.404       .  S
Zr902       O909   2.390       .  S
Zr903       O905   2.445       .  S
Zr903       O927   2.437       .  S
Zr903       O929   2.348       .  S
Zr903       O910   2.389       .  S
Zr903       O907   2.280       .  S
Zr904       O930   2.438       .  S
Zr904       O931   2.435       .  S
Zr904       O906   2.445       .  S
Zr904       O908   2.411       .  S
Zr904       O907   2.336       .  S
O905        H942   0.991       .  S
O906        H937   0.991       .  S
O906        H951   0.989       .  S
O908        H934   0.965       .  S
O909       Zr919   2.366       .  S
O910       Zr919   2.368       .  S
O910        H935   0.966       .  S
C911       C1307   1.496       .  S
C912       C1301   1.491       .  S
C913       C1289   1.470       .  S
O914        H950   0.990       .  S
O915        C917   1.284       .  A
O916        C917   1.296       .  A
O918       Zr919   2.434       .  S
O918        H947   0.990       .  S
Zr919       O922   2.436       .  S
Zr919       O923   2.440       .  S
Zr919       O924   2.451       .  S
O920        C925   1.290       .  A
O921        H938   0.990       .  S
O921        H953   0.990       .  S
O922        H939   0.990       .  S
O923        H943   0.990       .  S
O923        H952   0.991       .  S
O924        C925   1.288       .  A
C925       C1277   1.496       .  S
O926        H945   0.990       .  S
O926        H949   0.991       .  S
O927        H941   0.990       .  S
O927        H948   0.990       .  S
O928        C932   1.307       .  A
O929        C932   1.264       .  A
O930        H940   0.991       .  S
O931        H944   0.989       .  S
C955       C1535   1.438       .  S
C955        N956   1.359       .  A
C955        N960   1.351       .  A
N956        C957   1.353       .  A
C957        N958   1.381       .  A
N958        C959   1.370       .  A
C959        N960   1.345       .  A
Zr961       O962   2.433       .  S
Zr961       O963   2.408       .  S
Zr961       O964   2.479       .  S
Zr961       O967   2.517       .  S
Zr961       O969   2.388       .  S
Zr961       O970   2.401       .  S
Zr961       O971   2.437       .  S
Zr961       O972   2.404       .  S
O962       H1018   0.990       .  S
O962       H1026   0.991       .  S
O963        C983   1.279       .  A
O964        C985   1.291       .  A
O965       Zr975   2.364       .  S
O965        C984   1.261       .  A
O966       Zr974   2.428       .  S
O966        C985   1.288       .  A
O967        C984   1.296       .  A
O968       Zr976   2.493       .  S
O968        C983   1.297       .  A
O969       Zr974   2.361       .  S
O969       Zr976   2.338       .  S
O970       Zr975   2.397       .  S
O970       Zr976   2.374       .  S
O970       H1005   0.961       .  S
O971       Zr974   2.404       .  S
O971       Zr991   2.409       .  S
O971       H1008   0.962       .  S
O972       Zr975   2.384       .  S
O972       Zr991   2.401       .  S
Zr973       O998   2.435       .  S
Zr973       O992   2.458       .  S
Zr973      O1000   2.529       .  S
Zr973       O988   2.482       .  S
Zr973       O979   2.413       .  S
Zr973       O980   2.443       .  S
Zr973       O981   2.380       .  S
Zr973       O982   2.390       .  S
Zr974       O993   2.438       .  S
Zr974       O986   2.436       .  S
Zr974       O987   2.433       .  S
Zr974       O980   2.393       .  S
Zr974       O981   2.368       .  S
Zr975       O977   2.438       .  S
Zr975       O999   2.441       .  S
Zr975      O1001   2.359       .  S
Zr975       O979   2.384       .  S
Zr975       O982   2.403       .  S
Zr976      O1002   2.435       .  S
Zr976      O1003   2.435       .  S
Zr976       O978   2.437       .  S
Zr976       O979   2.410       .  S
Zr976       O980   2.421       .  S
O977       H1014   0.990       .  S
O978       H1009   0.991       .  S
O978       H1023   0.990       .  S
O980       H1006   0.967       .  S
O981       Zr991   2.343       .  S
O982       Zr991   2.384       .  S
O982       H1007   0.966       .  S
C983       C1031   1.479       .  S
C985       C1337   1.489       .  S
O986       H1022   0.990       .  S
O987        C989   1.288       .  A
O988        C989   1.293       .  A
C989       C1283   1.489       .  S
O990       Zr991   2.435       .  S
O990       H1019   0.990       .  S
Zr991       O994   2.435       .  S
Zr991       O995   2.440       .  S
Zr991       O996   2.459       .  S
O992        C997   1.287       .  A
O993       H1010   0.990       .  S
O993       H1025   0.990       .  S
O994       H1011   0.990       .  S
O995       H1015   0.990       .  S
O995       H1024   0.990       .  S
O996        C997   1.290       .  A
C997       C1313   1.489       .  S
O998       H1017   0.990       .  S
O998       H1021   0.990       .  S
O999       H1013   0.989       .  S
O999       H1020   0.991       .  S
O1000      C1004   1.303       .  A
O1001      C1004   1.261       .  A
O1002      H1012   0.990       .  S
O1003      H1016   0.991       .  S
C1004      C1275   1.485       .  S
C1027      C1769   1.433       .  S
C1027      N1028   1.341       .  A
C1027      N1032   1.348   1_556  A
N1028      C1029   1.344       .  A
C1029      C1133   1.478       .  S
C1029      N1030   1.376       .  A
N1030      C1031   1.382   1_556  A
C1031      N1032   1.353       .  A
Zr1033     O1034   2.435       .  S
Zr1033     O1035   2.456       .  S
Zr1033     O1036   2.462       .  S
Zr1033     O1039   2.539       .  S
Zr1033     O1041   2.381       .  S
Zr1033     O1042   2.382       .  S
Zr1033     O1043   2.441       .  S
Zr1033     O1044   2.414       .  S
O1034      H1090   0.990       .  S
O1034      H1098   0.990       .  S
O1035      C1055   1.288       .  A
O1036      C1057   1.291       .  A
O1037     Zr1047   2.365       .  S
O1037      C1056   1.262       .  A
O1038     Zr1046   2.429       .  S
O1038      C1057   1.285       .  A
O1039      C1056   1.301       .  A
O1040     Zr1048   2.475       .  S
O1040      C1055   1.292       .  A
O1041     Zr1046   2.375       .  S
O1041     Zr1048   2.345       .  S
O1042     Zr1047   2.395       .  S
O1042     Zr1048   2.380       .  S
O1042      H1077   0.968       .  S
O1043     Zr1046   2.403       .  S
O1043     Zr1063   2.415       .  S
O1043      H1080   0.964       .  S
O1044     Zr1047   2.388       .  S
O1044     Zr1063   2.415       .  S
Zr1045     O1070   2.436       .  S
Zr1045     O1064   2.440       .  S
Zr1045     O1072   2.505       .  S
Zr1045     O1060   2.471       .  S
Zr1045     O1051   2.406       .  S
Zr1045     O1052   2.425       .  S
Zr1045     O1053   2.381       .  S
Zr1045     O1054   2.373       .  S
Zr1046     O1065   2.439       .  S
Zr1046     O1058   2.435       .  S
Zr1046     O1059   2.431       .  S
Zr1046     O1052   2.397       .  S
Zr1046     O1053   2.376       .  S
Zr1047     O1049   2.429       .  S
Zr1047     O1071   2.437       .  S
Zr1047     O1073   2.365       .  S
Zr1047     O1051   2.385       .  S
Zr1047     O1054   2.390       .  S
Zr1048     O1074   2.436       .  S
Zr1048     O1075   2.436       .  S
Zr1048     O1050   2.438       .  S
Zr1048     O1051   2.420       .  S
Zr1048     O1052   2.414       .  S
O1049      H1086   0.991       .  S
O1050      H1081   0.990       .  S
O1050      H1095   0.990       .  S
O1052      H1078   0.965       .  S
O1053     Zr1063   2.350       .  S
O1054     Zr1063   2.384       .  S
O1054      H1079   0.964       .  S
C1055      C1265   1.493       .  S
C1056      C1295   1.499       .  S
C1057      C1269   1.471       .  S
O1058      H1094   0.990       .  S
O1059      C1061   1.286       .  A
O1060      C1061   1.292       .  A
C1061      C1341   1.478       .  S
O1062     Zr1063   2.434       .  S
O1062      H1091   0.990       .  S
Zr1063     O1066   2.437       .  S
Zr1063     O1067   2.437       .  S
Zr1063     O1068   2.477       .  S
O1064      C1069   1.287       .  A
O1065      H1082   0.990       .  S
O1065      H1097   0.990       .  S
O1066      H1083   0.990       .  S
O1067      H1087   0.990       .  S
O1067      H1096   0.990       .  S
O1068      C1069   1.290       .  A
C1069      C1101   1.488       .  S
O1070      H1089   0.990   1_545  S
O1070      H1093   0.991       .  S
O1071      H1085   0.990       .  S
O1071      H1092   0.990       .  S
O1072      C1076   1.301       .  A
O1073      C1076   1.267       .  A
O1074      H1084   0.990       .  S
O1075      H1088   0.990       .  S
C1076      C1259   1.476       .  S
C1099      C1697   1.451       .  S
C1099      N1100   1.352       .  A
C1099      N1104   1.358       .  A
N1100      C1101   1.352   1_565  A
C1101      N1102   1.373       .  A
N1102      C1103   1.380   1_545  A
C1103      C1148   1.493       .  S
C1103      N1104   1.350       .  A
Zr1105     O1106   2.437       .  S
Zr1105     O1107   2.418       .  S
Zr1105     O1108   2.437       .  S
Zr1105     O1111   2.500       .  S
Zr1105     O1113   2.379       .  S
Zr1105     O1114   2.390       .  S
Zr1105     O1115   2.428       .  S
Zr1105     O1116   2.411       .  S
O1106      H1162   0.990       .  S
O1106      H1170   0.990   1_655  S
O1107      C1127   1.280       .  A
O1108      C1129   1.287       .  A
O1109     Zr1119   2.375       .  S
O1109      C1128   1.267       .  A
O1110     Zr1118   2.456       .  S
O1110      C1129   1.290       .  A
O1111      C1128   1.294       .  A
O1112     Zr1120   2.496       .  S
O1112      C1127   1.299       .  A
O1113     Zr1118   2.357       .  S
O1113     Zr1120   2.329       .  S
O1114     Zr1119   2.399       .  S
O1114     Zr1120   2.374       .  S
O1114      H1149   0.965       .  S
O1115     Zr1118   2.401       .  S
O1115     Zr1135   2.405       .  S
O1115      H1152   0.965       .  S
O1116     Zr1119   2.387       .  S
O1116     Zr1135   2.409       .  S
Zr1117     O1142   2.436       .  S
Zr1117     O1136   2.439       .  S
Zr1117     O1144   2.538       .  S
Zr1117     O1132   2.468       .  S
Zr1117     O1123   2.401       .  S
Zr1117     O1124   2.437       .  S
Zr1117     O1125   2.388       .  S
Zr1117     O1126   2.394       .  S
Zr1118     O1137   2.437       .  S
Zr1118     O1130   2.436       .  S
Zr1118     O1131   2.435       .  S
Zr1118     O1124   2.412       .  S
Zr1118     O1125   2.364       .  S
Zr1119     O1121   2.438   1_565  S
Zr1119     O1143   2.441       .  S
Zr1119     O1145   2.354       .  S
Zr1119     O1123   2.400       .  S
Zr1119     O1126   2.417       .  S
Zr1120     O1146   2.437       .  S
Zr1120     O1147   2.436       .  S
Zr1120     O1122   2.435       .  S
Zr1120     O1123   2.412       .  S
Zr1120     O1124   2.412       .  S
O1121      H1158   0.990       .  S
O1122      H1153   0.990       .  S
O1122      H1167   0.990       .  S
O1124      H1150   0.965       .  S
O1125     Zr1135   2.343       .  S
O1126     Zr1135   2.371       .  S
O1126      H1151   0.965       .  S
C1127      C1239   1.478       .  S
C1128      C1343   1.479       .  S
C1129      C1329   1.467       .  S
O1130      H1166   0.991       .  S
O1131      C1133   1.287       .  A
O1132      C1133   1.290       .  A
O1134     Zr1135   2.437       .  S
O1134      H1163   0.990       .  S
Zr1135     O1138   2.436       .  S
Zr1135     O1139   2.440   1_565  S
Zr1135     O1140   2.456       .  S
O1136      C1141   1.284       .  A
O1137      H1154   0.990       .  S
O1137      H1169   0.990       .  S
O1138      H1155   0.990       .  S
O1139      H1159   0.990       .  S
O1139      H1168   0.990       .  S
O1140      C1141   1.291       .  A
C1141      C1335   1.482       .  S
O1142      H1161   0.990       .  S
O1142      H1165   0.990       .  S
O1143      H1157   0.989       .  S
O1143      H1164   0.989       .  S
O1144      C1148   1.301       .  A
O1145      C1148   1.255       .  A
O1146      H1156   0.990       .  S
O1147      H1160   0.990       .  S
Zr1171     O1172   2.434       .  S
Zr1171     O1173   2.451       .  S
Zr1171     O1174   2.479       .  S
Zr1171     O1177   2.541       .  S
Zr1171     O1179   2.382       .  S
Zr1171     O1180   2.381       .  S
Zr1171     O1181   2.447       .  S
Zr1171     O1182   2.422       .  S
O1172      H1228   0.990       .  S
O1172      H1236   0.990       .  S
O1173      C1193   1.287       .  A
O1174      C1195   1.294       .  A
O1175     Zr1185   2.359       .  S
O1175      C1194   1.260       .  A
O1176     Zr1184   2.425       .  S
O1176      C1195   1.286       .  A
O1177      C1194   1.301       .  A
O1178     Zr1186   2.477       .  S
O1178      C1193   1.293       .  A
O1179     Zr1184   2.374       .  S
O1179     Zr1186   2.338       .  S
O1180     Zr1185   2.395       .  S
O1180     Zr1186   2.380       .  S
O1180      H1215   0.965       .  S
O1181     Zr1184   2.407       .  S
O1181     Zr1201   2.420       .  S
O1181      H1218   0.967       .  S
O1182     Zr1185   2.392       .  S
O1182     Zr1201   2.426       .  S
Zr1183     O1208   2.435       .  S
Zr1183     O1202   2.424       .  S
Zr1183     O1210   2.521       .  S
Zr1183     O1198   2.456       .  S
Zr1183     O1189   2.405       .  S
Zr1183     O1190   2.431       .  S
Zr1183     O1191   2.379       .  S
Zr1183     O1192   2.374       .  S
Zr1184     O1203   2.440       .  S
Zr1184     O1196   2.436       .  S
Zr1184     O1197   2.446       .  S
Zr1184     O1190   2.399       .  S
Zr1184     O1191   2.357       .  S
Zr1185     O1187   2.440       .  S
Zr1185     O1209   2.438       .  S
Zr1185     O1211   2.345       .  S
Zr1185     O1189   2.385       .  S
Zr1185     O1192   2.404       .  S
Zr1186     O1212   2.437       .  S
Zr1186     O1213   2.435       .  S
Zr1186     O1188   2.437       .  S
Zr1186     O1189   2.421       .  S
Zr1186     O1190   2.415       .  S
O1187      H1224   0.991       .  S
O1188      H1219   0.990       .  S
O1188      H1233   0.991       .  S
O1190      H1216   0.963       .  S
O1191     Zr1201   2.331       .  S
O1192     Zr1201   2.367       .  S
O1192      H1217   0.966       .  S
C1193      C1305   1.491       .  S
C1194      C1253   1.501       .  S
C1195      C1287   1.479       .  S
O1196      H1232   0.991       .  S
O1197      C1199   1.291       .  A
O1198      C1199   1.287       .  A
C1199      C1331   1.479       .  S
O1200     Zr1201   2.435       .  S
O1200      H1229   0.990       .  S
Zr1201     O1204   2.436       .  S
Zr1201     O1205   2.438       .  S
Zr1201     O1206   2.505       .  S
O1202      C1207   1.283       .  A
O1203      H1220   0.990       .  S
O1203      H1235   0.990       .  S
O1204      H1221   0.990       .  S
O1205      H1225   0.990       .  S
O1205      H1234   0.990       .  S
O1206      C1207   1.299       .  A
C1207      C1241   1.492       .  S
O1208      H1227   0.990       .  S
O1208      H1231   0.991       .  S
O1209      H1223   0.989       .  S
O1209      H1230   0.990       .  S
O1210      C1214   1.301       .  A
O1211      C1214   1.262       .  A
O1212      H1222   0.990       .  S
O1213      H1226   0.990       .  S
C1214      C1245   1.473       .  S
C1237      C1571   1.424       .  S
C1237      N1238   1.336       .  A
C1237      N1242   1.351   1_655  A
N1238      C1239   1.333       .  A
C1239      N1240   1.381   1_655  A
N1240      C1241   1.386       .  A
C1241      N1242   1.356       .  A
C1243      C1391   1.438       .  S
C1243      N1244   1.357   1_655  A
C1243      N1248   1.349   1_655  A
N1244      C1245   1.354       .  A
C1245      N1246   1.375       .  A
N1246      C1247   1.358       .  A
C1247      N1248   1.346       .  A
C1249      C1409   1.443       .  S
C1249      N1250   1.351       .  A
C1249      N1254   1.357       .  A
N1250      C1251   1.349       .  A
C1251      N1252   1.376       .  A
N1252      C1253   1.386       .  A
C1253      N1254   1.354       .  A
C1255      C1427   1.431       .  S
C1255      N1256   1.363       .  A
C1255      N1260   1.348       .  A
N1256      C1257   1.361   1_565  A
C1257      N1258   1.373       .  A
N1258      C1259   1.365       .  A
C1259      N1260   1.334   1_545  A
C1261      C1589   1.442       .  S
C1261      N1262   1.341   1_655  A
C1261      N1266   1.354       .  A
N1262      C1263   1.341       .  A
C1263      N1264   1.378   1_455  A
N1264      C1265   1.383       .  A
C1265      N1266   1.360       .  A
C1267      C1607   1.461       .  S
C1267      N1268   1.348       .  A
C1267      N1272   1.353   1_655  A
N1268      C1269   1.350       .  A
C1269      N1270   1.373       .  A
N1270      C1271   1.375   1_655  A
C1271      N1272   1.359       .  A
C1273      C1445   1.443       .  S
C1273      N1274   1.352       .  A
C1273      N1278   1.353       .  A
N1274      C1275   1.347       .  A
C1275      N1276   1.380       .  A
N1276      C1277   1.373       .  A
C1277      N1278   1.355       .  A
C1279      C1679   1.447       .  S
C1279      N1280   1.345   1_565  A
C1279      N1284   1.346       .  A
N1280      C1281   1.350       .  A
C1281      N1282   1.381   1_545  A
N1282      C1283   1.380       .  A
C1283      N1284   1.355       .  A
C1285      C1640   1.453       .  S
C1285      N1286   1.347   1_554  A
C1285      N1290   1.348       .  A
N1286      C1287   1.352       .  A
C1287      N1288   1.373   1_556  A
N1288      C1289   1.376       .  A
C1289      N1290   1.355       .  A
C1291      C1373   1.447       .  S
C1291      N1292   1.362       .  A
C1291      N1296   1.361       .  A
N1292      C1293   1.353       .  A
C1293      N1294   1.375       .  A
N1294      C1295   1.375       .  A
C1295      N1296   1.349       .  A
C1297      C1751   1.440       .  S
C1297      N1298   1.370       .  A
C1297      N1302   1.358       .  A
N1298      C1299   1.359       .  A
C1299      N1300   1.372       .  A
N1300      C1301   1.366       .  A
C1301      N1302   1.342       .  A
C1303      C1661   1.449       .  S
C1303      N1304   1.348       .  A
C1303      N1308   1.353   1_556  A
N1304      C1305   1.348       .  A
C1305      N1306   1.380       .  A
N1306      C1307   1.383   1_556  A
C1307      N1308   1.356       .  A
C1309      C1625   1.457       .  S
C1309      N1310   1.348   1_565  A
C1309      N1314   1.350       .  A
N1310      C1311   1.354   1_545  A
C1311      N1312   1.379       .  A
N1312      C1313   1.380       .  A
C1313      N1314   1.355       .  A
C1315      C1733   1.463       .  S
C1315      N1316   1.351       .  A
C1315      N1320   1.353       .  A
N1316      C1317   1.355       .  A
C1317      N1318   1.376       .  A
N1318      C1319   1.377       .  A
C1319      N1320   1.357       .  A
C1321      C1553   1.446       .  S
C1321      N1322   1.356       .  A
C1321      N1326   1.353       .  A
N1322      C1323   1.353       .  A
C1323      N1324   1.382       .  A
N1324      C1325   1.373       .  A
C1325      N1326   1.350       .  A
C1327      C1517   1.438   1_556  S
C1327      N1328   1.341   1_455  A
C1327      N1332   1.344       .  A
N1328      C1329   1.347       .  A
C1329      N1330   1.378       .  A
N1330      C1331   1.377   1_655  A
C1331      N1332   1.351       .  A
C1333      C1481   1.444   1_565  S
C1333      N1334   1.344   1_554  A
C1333      N1338   1.338       .  A
N1334      C1335   1.353       .  A
C1335      N1336   1.386       .  A
N1336      C1337   1.380   1_556  A
C1337      N1338   1.348       .  A
C1339      C1496   1.445   1_655  S
C1339      N1340   1.350   1_565  A
C1339      N1344   1.356       .  A
N1340      C1341   1.351       .  A
C1341      N1342   1.368   1_545  A
N1342      C1343   1.375       .  A
C1343      N1344   1.353       .  A
C1345      N1351   1.335       .  A
C1345      C1350   1.387       .  A
C1345      C1346   1.397       .  A
C1346      C1347   1.394       .  A
C1346      H1357   1.082       .  S
C1347      C1356   1.371       .  A
C1347      C1348   1.385       .  A
C1348      N1354   1.335       .  A
C1348      C1349   1.397       .  A
C1349      C1350   1.395       .  A
C1349      H1358   1.083       .  S
C1350      C1353   1.371       .  A
N1351      C1352   1.349       .  A
N1351      H1361   1.045       .  S
C1352      C1353   1.387       .  A
C1353      H1359   1.083       .  S
N1354      C1355   1.353       .  A
N1354      H1362   1.045       .  S
C1355      C1356   1.390       .  A
C1356      H1360   1.082       .  S
C1363      N1369   1.338       .  A
C1363      C1368   1.386       .  A
C1363      C1364   1.397       .  A
C1364      C1365   1.397       .  A
C1364      H1375   1.082       .  S
C1365      C1374   1.372       .  A
C1365      C1366   1.387       .  A
C1366      N1372   1.337       .  A
C1366      C1367   1.398       .  A
C1367      C1368   1.397       .  A
C1367      H1376   1.083       .  S
C1368      C1371   1.372       .  A
N1369      C1370   1.351       .  A
N1369      H1379   1.045       .  S
C1370      C1371   1.392       .  A
C1371      H1377   1.083       .  S
N1372      C1373   1.351       .  A
N1372      H1380   1.045       .  S
C1373      C1374   1.389       .  A
C1374      H1378   1.083       .  S
C1381      N1387   1.335       .  A
C1381      C1386   1.389       .  A
C1381      C1382   1.393       .  A
C1382      C1383   1.391       .  A
C1382      H1393   1.083       .  S
C1383      C1392   1.364       .  A
C1383      C1384   1.387       .  A
C1384      N1390   1.338       .  A
C1384      C1385   1.396       .  A
C1385      C1386   1.397       .  A
C1385      H1394   1.083       .  S
C1386      C1389   1.367       .  A
N1387      C1388   1.348       .  A
N1387      H1397   1.045       .  S
C1388      C1389   1.389       .  A
C1389      H1395   1.083       .  S
N1390      C1391   1.350       .  A
N1390      H1398   1.045       .  S
C1391      C1392   1.386       .  A
C1392      H1396   1.083       .  S
C1399      N1405   1.335       .  A
C1399      C1404   1.387       .  A
C1399      C1400   1.395       .  A
C1400      C1401   1.393       .  A
C1400      H1411   1.083       .  S
C1401      C1410   1.367       .  A
C1401      C1402   1.386       .  A
C1402      N1408   1.340       .  A
C1402      C1403   1.400       .  A
C1403      C1404   1.400       .  A
C1403      H1412   1.082       .  S
C1404      C1407   1.374       .  A
N1405      C1406   1.352       .  A
N1405      H1415   1.045       .  S
C1406      C1407   1.393       .  A
C1407      H1413   1.083       .  S
N1408      C1409   1.351       .  A
N1408      H1416   1.045       .  S
C1409      C1410   1.386       .  A
C1410      H1414   1.083       .  S
C1417      N1423   1.335       .  A
C1417      C1422   1.392       .  A
C1417      C1418   1.399       .  A
C1418      C1419   1.393       .  A
C1418      H1429   1.083       .  S
C1419      C1428   1.367       .  A
C1419      C1420   1.379       .  A
C1420      N1426   1.336       .  A
C1420      C1421   1.393       .  A
C1421      C1422   1.398       .  A
C1421      H1430   1.083       .  S
C1422      C1425   1.367       .  A
N1423      C1424   1.355       .  A
N1423      H1433   1.046       .  S
C1424      C1425   1.391       .  A
C1425      H1431   1.083       .  S
N1426      C1427   1.352       .  A
N1426      H1434   1.045       .  S
C1427      C1428   1.391       .  A
C1428      H1432   1.083       .  S
C1435      N1441   1.336       .  A
C1435      C1440   1.387       .  A
C1435      C1436   1.396       .  A
C1436      C1437   1.396       .  A
C1436      H1447   1.083       .  S
C1437      C1446   1.370       .  A
C1437      C1438   1.388       .  A
C1438      N1444   1.334       .  A
C1438      C1439   1.394       .  A
C1439      C1440   1.391       .  A
C1439      H1448   1.083       .  S
C1440      C1443   1.366       .  A
N1441      C1442   1.349       .  A
N1441      H1451   1.045       .  S
C1442      C1443   1.385       .  A
C1443      H1449   1.083       .  S
N1444      C1445   1.349       .  A
N1444      H1452   1.045       .  S
C1445      C1446   1.389       .  A
C1446      H1450   1.083       .  S
C1453      N1459   1.337       .  A
C1453      C1458   1.388       .  A
C1453      C1454   1.402       .  A
C1454      C1455   1.397       .  A
C1454      H1465   1.083       .  S
C1455      C1464   1.377       .  A
C1455      C1456   1.384       .  A
C1456      N1462   1.335       .  A
C1456      C1457   1.396       .  A
C1457      C1458   1.396       .  A
C1457      H1466   1.083       .  S
C1458      C1461   1.371       .  A
N1459      C1460   1.355       .  A
N1459      H1469   1.045       .  S
C1460      C1461   1.391       .  A
C1461      H1467   1.083       .  S
N1462      C1463   1.350       .  A
N1462      H1470   1.045       .  S
C1463      C1464   1.390       .  A
C1464      H1468   1.082       .  S
C1471      N1477   1.334       .  A
C1471      C1476   1.388       .  A
C1471      C1472   1.395       .  A
C1472      C1473   1.394       .  A
C1472      H1483   1.083       .  S
C1473      C1482   1.370       .  A
C1473      C1474   1.388       .  A
C1474      N1480   1.333       .  A
C1474      C1475   1.394       .  A
C1475      C1476   1.392       .  A
C1475      H1484   1.083       .  S
C1476      C1479   1.368       .  A
N1477      C1478   1.348       .  A
N1477      H1487   1.045       .  S
C1478      C1479   1.385       .  A
C1479      H1485   1.083       .  S
N1480      C1481   1.350       .  A
N1480      H1488   1.045       .  S
C1481      C1482   1.388       .  A
C1482      H1486   1.083       .  S
C1489      N1495   1.334       .  A
C1489      C1494   1.386       .  A
C1489      C1490   1.393       .  A
C1490      C1491   1.392       .  A
C1490      H1501   1.083       .  S
C1491      C1500   1.367       .  A
C1491      C1492   1.387       .  A
C1492      N1498   1.339       .  A
C1492      C1493   1.402       .  A
C1493      C1494   1.400       .  A
C1493      H1502   1.083   1_545  S
C1494      C1497   1.377   1_545  A
N1495      C1496   1.348   1_545  A
N1495      H1505   1.045       .  S
C1496      C1497   1.391       .  A
C1497      H1503   1.082       .  S
N1498      C1499   1.355       .  A
N1498      H1506   1.045   1_545  S
C1499      C1500   1.388       .  A
C1500      H1504   1.083       .  S
C1507      N1513   1.329       .  A
C1507      C1512   1.388       .  A
C1507      C1508   1.390       .  A
C1508      C1509   1.388       .  A
C1508      H1519   1.083       .  S
C1509      C1518   1.363       .  A
C1509      C1510   1.387       .  A
C1510      N1516   1.336       .  A
C1510      C1511   1.397       .  A
C1511      C1512   1.395       .  A
C1511      H1520   1.083       .  S
C1512      C1515   1.371       .  A
N1513      C1514   1.347       .  A
N1513      H1523   1.045       .  S
C1514      C1515   1.388       .  A
C1515      H1521   1.083       .  S
N1516      C1517   1.351       .  A
N1516      H1524   1.045       .  S
C1517      C1518   1.384       .  A
C1518      H1522   1.083       .  S
C1525      N1531   1.338       .  A
C1525      C1530   1.388       .  A
C1525      C1526   1.399       .  A
C1526      C1527   1.396       .  A
C1526      H1537   1.082       .  S
C1527      C1536   1.372       .  A
C1527      C1528   1.385       .  A
C1528      N1534   1.334       .  A
C1528      C1529   1.392       .  A
C1529      C1530   1.393       .  A
C1529      H1538   1.083       .  S
C1530      C1533   1.364       .  A
N1531      C1532   1.353       .  A
N1531      H1541   1.045       .  S
C1532      C1533   1.389       .  A
C1533      H1539   1.083       .  S
N1534      C1535   1.349       .  A
N1534      H1542   1.045       .  S
C1535      C1536   1.389       .  A
C1536      H1540   1.082       .  S
C1543      N1549   1.338       .  A
C1543      C1548   1.386       .  A
C1543      C1544   1.401       .  A
C1544      C1545   1.398       .  A
C1544      H1555   1.083       .  S
C1545      C1554   1.374       .  A
C1545      C1546   1.385       .  A
C1546      N1552   1.336       .  A
C1546      C1547   1.396       .  A
C1547      C1548   1.396       .  A
C1547      H1556   1.083       .  S
C1548      C1551   1.370       .  A
N1549      C1550   1.355       .  A
N1549      H1559   1.045       .  S
C1550      C1551   1.389       .  A
C1551      H1557   1.083       .  S
N1552      C1553   1.351       .  A
N1552      H1560   1.045       .  S
C1553      C1554   1.390       .  A
C1554      H1558   1.082       .  S
C1561      N1567   1.332   1_655  A
C1561      C1566   1.393       .  A
C1561      C1562   1.396   1_655  A
C1562      C1563   1.390       .  A
C1562      H1573   1.083       .  S
C1563      C1572   1.368       .  A
C1563      C1564   1.384   1_455  A
C1564      N1570   1.331       .  A
C1564      C1565   1.390       .  A
C1565      C1566   1.393       .  A
C1565      H1574   1.083       .  S
C1566      C1569   1.365       .  A
N1567      C1568   1.350   1_455  A
N1567      H1577   1.046       .  S
C1568      C1569   1.387       .  A
C1569      H1575   1.083       .  S
N1570      C1571   1.348       .  A
N1570      H1578   1.045       .  S
C1571      C1572   1.386   1_655  A
C1572      H1576   1.083       .  S
C1579      N1585   1.340       .  A
C1579      C1584   1.388       .  A
C1579      C1580   1.399       .  A
C1580      C1581   1.397       .  A
C1580      H1591   1.083       .  S
C1581      C1590   1.369   1_455  A
C1581      C1582   1.384       .  A
C1582      N1588   1.338       .  A
C1582      C1583   1.394       .  A
C1583      C1584   1.396       .  A
C1583      H1592   1.083       .  S
C1584      C1587   1.364       .  A
N1585      C1586   1.353       .  A
N1585      H1595   1.045       .  S
C1586      C1587   1.391       .  A
C1587      H1593   1.083       .  S
N1588      C1589   1.349   1_455  A
N1588      H1596   1.045       .  S
C1589      C1590   1.392       .  A
C1590      H1594   1.083       .  S
C1597      N1603   1.343   1_655  A
C1597      C1602   1.386       .  A
C1597      C1598   1.403   1_655  A
C1598      C1599   1.402       .  A
C1598      H1609   1.082       .  S
C1599      C1608   1.378       .  A
C1599      C1600   1.385   1_455  A
C1600      N1606   1.338       .  A
C1600      C1601   1.398       .  A
C1601      C1602   1.397       .  A
C1601      H1610   1.083       .  S
C1602      C1605   1.372       .  A
N1603      C1604   1.354   1_455  A
N1603      H1613   1.045       .  S
C1604      C1605   1.390       .  A
C1605      H1611   1.083       .  S
N1606      C1607   1.353       .  A
N1606      H1614   1.045       .  S
C1607      C1608   1.394   1_655  A
C1608      H1612   1.082       .  S
C1615      N1621   1.340       .  A
C1615      C1620   1.386       .  A
C1615      C1616   1.400       .  A
C1616      C1617   1.399       .  A
C1616      H1627   1.083       .  S
C1617      C1626   1.374       .  A
C1617      C1618   1.386       .  A
C1618      N1624   1.341   1_545  A
C1618      C1619   1.401       .  A
C1619      C1620   1.400       .  A
C1619      H1628   1.082       .  S
C1620      C1623   1.376       .  A
N1621      C1622   1.353       .  A
N1621      H1631   1.045       .  S
C1622      C1623   1.392       .  A
C1623      H1629   1.082       .  S
N1624      C1625   1.353       .  A
N1624      H1632   1.045       .  S
C1625      C1626   1.391   1_565  A
C1626      H1630   1.083   1_545  S
C1633      N1639   1.340       .  A
C1633      C1638   1.387       .  A
C1633      C1634   1.398       .  A
C1634      C1635   1.398       .  A
C1634      H1645   1.083       .  S
C1635      C1644   1.371       .  A
C1635      C1636   1.387       .  A
C1636      N1642   1.340       .  A
C1636      C1637   1.397       .  A
C1637      C1638   1.397       .  A
C1637      H1646   1.083       .  S
C1638      C1641   1.369       .  A
N1639      C1640   1.352       .  A
N1639      H1649   1.045       .  S
C1640      C1641   1.390       .  A
C1641      H1647   1.083       .  S
N1642      C1643   1.350       .  A
N1642      H1650   1.045       .  S
C1643      C1644   1.390       .  A
C1644      H1648   1.083       .  S
C1651      N1657   1.337       .  A
C1651      C1656   1.387       .  A
C1651      C1652   1.399       .  A
C1652      C1653   1.397       .  A
C1652      H1663   1.082       .  S
C1653      C1662   1.375       .  A
C1653      C1654   1.386       .  A
C1654      N1660   1.335       .  A
C1654      C1655   1.397       .  A
C1655      C1656   1.395       .  A
C1655      H1664   1.083       .  S
C1656      C1659   1.371       .  A
N1657      C1658   1.351       .  A
N1657      H1667   1.045       .  S
C1658      C1659   1.389       .  A
C1659      H1665   1.083       .  S
N1660      C1661   1.351       .  A
N1660      H1668   1.045       .  S
C1661      C1662   1.390       .  A
C1662      H1666   1.082       .  S
C1669      N1675   1.335       .  A
C1669      C1674   1.386   1_545  A
C1669      C1670   1.396       .  A
C1670      C1671   1.394       .  A
C1670      H1681   1.083       .  S
C1671      C1680   1.369       .  A
C1671      C1672   1.387   1_545  A
C1672      N1678   1.338       .  A
C1672      C1673   1.399       .  A
C1673      C1674   1.397       .  A
C1673      H1682   1.082       .  S
C1674      C1677   1.373       .  A
N1675      C1676   1.351       .  A
N1675      H1685   1.045       .  S
C1676      C1677   1.391   1_545  A
C1677      H1683   1.082       .  S
N1678      C1679   1.351       .  A
N1678      H1686   1.045       .  S
C1679      C1680   1.389   1_565  A
C1680      H1684   1.083       .  S
C1687      N1693   1.333       .  A
C1687      C1692   1.381       .  A
C1687      C1688   1.393       .  A
C1688      C1689   1.396       .  A
C1688      H1699   1.083       .  S
C1689      C1698   1.369       .  A
C1689      C1690   1.391       .  A
C1690      N1696   1.335       .  A
C1690      C1691   1.400       .  A
C1691      C1692   1.393       .  A
C1691      H1700   1.083   1_565  S
C1692      C1695   1.372       .  A
N1693      C1694   1.352       .  A
N1693      H1703   1.045       .  S
C1694      C1695   1.389       .  A
C1695      H1701   1.083   1_565  S
N1696      C1697   1.352       .  A
N1696      H1704   1.046   1_565  S
C1697      C1698   1.390       .  A
C1698      H1702   1.084       .  S
C1705      N1711   1.340       .  A
C1705      C1710   1.386       .  A
C1705      C1706   1.399       .  A
C1706      C1707   1.398       .  A
C1706      H1717   1.083       .  S
C1707      C1716   1.371       .  A
C1707      C1708   1.387       .  A
C1708      N1714   1.339       .  A
C1708      C1709   1.398       .  A
C1709      C1710   1.397       .  A
C1709      H1718   1.082       .  S
C1710      C1713   1.371       .  A
N1711      C1712   1.353       .  A
N1711      H1721   1.045       .  S
C1712      C1713   1.391       .  A
C1713      H1719   1.083       .  S
N1714      C1715   1.350       .  A
N1714      H1722   1.045       .  S
C1715      C1716   1.391       .  A
C1716      H1720   1.083       .  S
C1723      N1729   1.341       .  A
C1723      C1728   1.386       .  A
C1723      C1724   1.401       .  A
C1724      C1725   1.400       .  A
C1724      H1735   1.082       .  S
C1725      C1734   1.376       .  A
C1725      C1726   1.385       .  A
C1726      N1732   1.341       .  A
C1726      C1727   1.401       .  A
C1727      C1728   1.400       .  A
C1727      H1736   1.082       .  S
C1728      C1731   1.375       .  A
N1729      C1730   1.353       .  A
N1729      H1739   1.045       .  S
C1730      C1731   1.391       .  A
C1731      H1737   1.082       .  S
N1732      C1733   1.354       .  A
N1732      H1740   1.045       .  S
C1733      C1734   1.393       .  A
C1734      H1738   1.082       .  S
C1741      N1747   1.332       .  A
C1741      C1746   1.387       .  A
C1741      C1742   1.395       .  A
C1742      C1743   1.391       .  A
C1742      H1753   1.083       .  S
C1743      C1752   1.367       .  A
C1743      C1744   1.383       .  A
C1744      N1750   1.338       .  A
C1744      C1745   1.399       .  A
C1745      C1746   1.400       .  A
C1745      H1754   1.083       .  S
C1746      C1749   1.373       .  A
N1747      C1748   1.352       .  A
N1747      H1757   1.045       .  S
C1748      C1749   1.396       .  A
C1749      H1755   1.083       .  S
N1750      C1751   1.354       .  A
N1750      H1758   1.045       .  S
C1751      C1752   1.386       .  A
C1752      H1756   1.083       .  S
C1759      N1765   1.330       .  A
C1759      C1764   1.387       .  A
C1759      C1760   1.395       .  A
C1760      C1761   1.391       .  A
C1760      H1771   1.083   1_556  S
C1761      C1770   1.370   1_556  A
C1761      C1762   1.386       .  A
C1762      N1768   1.331       .  A
C1762      C1763   1.395       .  A
C1763      C1764   1.393       .  A
C1763      H1772   1.083       .  S
C1764      C1767   1.371       .  A
N1765      C1766   1.351       .  A
N1765      H1775   1.045   1_556  S
C1766      C1767   1.389       .  A
C1767      H1773   1.083       .  S
N1768      C1769   1.349       .  A
N1768      H1776   1.045       .  S
C1769      C1770   1.386   1_556  A
C1770      H1774   1.083       .  S
