geometry optimzed in LAMMPS
_audit_creation_date              2020-11-30 
_audit_creation_method            'lammps2cif' 
_symmetry_space_group_name_H-M    'P1' 
_symmetry_Int_Tables_number       1 
_symmetry_cell_setting            triclinic 
loop_ 
_symmetry_equiv_pos_as_xyz 
  x,y,z 
_cell_length_a                    51.59502502 
_cell_length_b                    51.926583587272674 
_cell_length_c                    51.944184307527166 
_cell_angle_alpha                 90.41067397534336 
_cell_angle_beta                  89.98446211547373 
_cell_angle_gamma                 90.12546504907753 
loop_ 
_atom_site_label 
_atom_site_type_symbol 
_atom_site_fract_x 
_atom_site_fract_y 
_atom_site_fract_z 
_atom_site_charge 
O1          O  0.60216169  0.65881914  0.65375864    -0.77700
C2          C  0.66022500  0.67032264  0.59086713     0.83400
O3          O  0.58353043  0.62223183  0.56557213    -0.78800
O4          O  0.65698228  0.58223240  0.57014042    -0.80300
O5          O  0.65860061  0.58017601  0.65336357    -0.80100
O6          O  0.61453536  0.62472328  0.67672809    -0.78700
Zn7        Zn  0.61354651  0.65012873  0.61708909     1.55700
O8          O  0.68439464  0.59975639  0.62471022    -0.80100
Cd9        Cd  0.62238996  0.59747550  0.64802140     1.59700
Cd10       Cd  0.59796112  0.59660183  0.59212881     1.59600
O11         O  0.59091435  0.57186700  0.64976802    -0.80100
O12         O  0.62301887  0.61470396  0.61428266    -1.90600
Cd13       Cd  0.65738966  0.61207740  0.59749502     1.59900
O14         O  0.56842662  0.58257282  0.61470375    -0.80000
O15         O  0.66646078  0.64817988  0.58186840    -0.78700
C16         C  0.58105269  0.64657473  0.56768150     0.83900
C17         C  0.60529663  0.64747809  0.67533540     0.83500
O18         O  0.64390076  0.67286726  0.60905387    -0.77600
C19         C  0.68104062  0.58461142  0.64374117     0.84300
O20         O  0.58870751  0.65893903  0.58771037    -0.77700
C21         C  0.57007424  0.57147890  0.63641798     0.84400
C22         C  0.64020845  0.56452558  0.56604979     0.84800
O23         O  0.61698276  0.56615283  0.57429913    -0.80200
O24         O  0.85057805  0.59904794  0.34819442    -0.77700
C25         C  0.90503503  0.66313036  0.32931172     0.83400
O26         O  0.94133126  0.60209473  0.38931195    -0.78800
O27         O  0.91631269  0.67890158  0.41826118    -0.80300
O28         O  0.84175919  0.66318043  0.42214776    -0.80100
O29         O  0.82525979  0.61310096  0.38046780    -0.78700
Zn30       Zn  0.88721539  0.61351019  0.35628849     1.55700
O31         O  0.86029338  0.68868243  0.39309100    -0.80100
Cd32       Cd  0.85192623  0.62714384  0.40697945     1.59700
Cd33       Cd  0.91111385  0.61463674  0.41171507     1.59600
O34         O  0.85388275  0.59907425  0.43530066    -0.80100
O35         O  0.88555175  0.63053698  0.38916845    -1.90600
Cd36       Cd  0.89343976  0.66769940  0.38680057     1.59900
O37         O  0.89390545  0.58366570  0.43008702    -0.80000
O38         O  0.90694267  0.67636090  0.35009210    -0.78700
C39         C  0.93994933  0.58986132  0.36802528     0.83900
C40         C  0.82823730  0.60154121  0.35886610     0.83500
O41         O  0.89657420  0.64000746  0.32919015    -0.77600
C42         C  0.84557114  0.68542137  0.41243902     0.84300
O43         O  0.91869014  0.58827315  0.35524528    -0.77700
C44         C  0.87112504  0.58201352  0.43944739     0.84400
C45         C  0.92407365  0.66618346  0.43779450     0.84800
O46         O  0.92318924  0.64165415  0.43845086    -0.80200
O47         O  0.92428278  0.44901047  0.14312611    -0.77700
C48         C  0.86754144  0.44915863  0.07762598     0.83400
O49         O  0.84453482  0.39545329  0.15806122    -0.78800
O50         O  0.86088808  0.35909696  0.07959748    -0.80300
O51         O  0.94494792  0.37188569  0.08692434    -0.80100
O52         O  0.95339887  0.41998167  0.13008088    -0.78700
Zn53       Zn  0.89005646  0.43327398  0.12960370     1.55700
O54         O  0.91374298  0.38519027  0.06035004    -0.80100
Cd55       Cd  0.93160441  0.38765564  0.12189955     1.59700
Cd56       Cd  0.87379723  0.37414592  0.14122262     1.59600
O57         O  0.93688711  0.36509280  0.15470340    -0.80100
O58         O  0.89458071  0.39766448  0.11924598    -1.90600
Cd59       Cd  0.88250327  0.39283970  0.08334719     1.59900
O60         O  0.89689746  0.36007055  0.17045316    -0.80000
O61         O  0.86502880  0.42609797  0.06923307    -0.78700
C62         C  0.84246290  0.41961442  0.16214743     0.83900
C63         C  0.94779859  0.44171059  0.14015008     0.83500
O64         O  0.87838284  0.45414043  0.09913912    -0.77600
C65         C  0.93568364  0.37478331  0.06426542     0.84300
O66         O  0.85942441  0.43575337  0.15429890    -0.77700
C67         C  0.92140274  0.35775517  0.17245638     0.84400
C68         C  0.85500769  0.34114344  0.09525293     0.84800
O69         O  0.85877969  0.34346301  0.11946574    -0.80200
C70         C  0.75053365  0.62185039  0.00331794     0.04000
C71         C  0.77456414  0.60883711  0.00528730    -0.12200
C72         C  0.77540075  0.58180018  0.00569632     0.01500
C73         C  0.75227940  0.56788570  0.00511608    -0.10700
C74         C  0.72826652  0.58016795  0.00407828     0.04000
C75         C  0.72739674  0.60714469  0.00254418    -0.10100
H76         H  0.79252158  0.61959197  0.00666223     0.09600
H77         H  0.75300775  0.54705562  0.00588006     0.07100
H78         H  0.70877614  0.61656921  0.00089988     0.06900
C79         C  0.12357215  0.51928442  0.25679643     0.04000
C80         C  0.10889840  0.51492702  0.23409952    -0.12200
C81         C  0.08164701  0.51643002  0.23450681     0.01500
C82         C  0.06918721  0.52202537  0.25768722    -0.10700
C83         C  0.08290425  0.52572644  0.28060995     0.04000
C84         C  0.11027032  0.52461169  0.28018224    -0.10100
H85         H  0.11867206  0.51029838  0.21619897     0.09600
H86         H  0.04820842  0.52278779  0.25813977     0.07100
H87         H  0.12107820  0.52770966  0.29780929     0.06900
O88         O  0.59676388  0.34799236  0.86000971    -0.77700
C89         C  0.65622649  0.33772159  0.92279836     0.83400
O90         O  0.57672404  0.38687557  0.94467136    -0.78800
O91         O  0.65006568  0.42565646  0.94299995    -0.80300
O92         O  0.65586458  0.42371126  0.85727093    -0.80100
O93         O  0.60714547  0.38204769  0.83589983    -0.78700
Zn94       Zn  0.60984926  0.35722444  0.89579296     1.55700
O95         O  0.67968467  0.40684170  0.88915689    -0.80100
Cd96       Cd  0.61820163  0.40966204  0.86340323     1.59700
Cd97       Cd  0.59211174  0.41181017  0.91800345     1.59600
O98         O  0.58925829  0.43822249  0.86126709    -0.80100
O99         O  0.61812526  0.39307057  0.89753967    -1.90600
Cd100      Cd  0.65171387  0.39577392  0.91578596     1.59900
O101        O  0.56410600  0.42723435  0.89437770    -0.80000
O102        O  0.66095185  0.36009999  0.93213122    -0.78700
C103        C  0.57638727  0.36233426  0.94426826     0.83900
C104        C  0.59813537  0.35920987  0.83819746     0.83500
O105        O  0.64066874  0.33461058  0.90399480    -0.77600
C106        C  0.67768605  0.41963574  0.86833146     0.84300
O107        O  0.58586494  0.34925701  0.92560334    -0.77700
C108        C  0.56773456  0.43944124  0.87349083     0.84400
C109        C  0.63312787  0.44327459  0.94644871     0.84800
O110        O  0.61050279  0.44190038  0.93672300    -0.80200
O111        O  0.42669578  0.14391908  0.92237383    -0.77700
C112        C  0.43736459  0.07683853  0.86788443     0.83400
O113        O  0.38300477  0.15238978  0.83720784    -0.78800
O114        O  0.34807574  0.07402957  0.85272336    -0.80300
O115        O  0.35631077  0.08250113  0.93836317    -0.80100
O116        O  0.39302595  0.13469673  0.94769479    -0.78700
Zn117      Zn  0.41623941  0.12746536  0.88780077     1.55700
O118        O  0.37132260  0.05561884  0.90813560    -0.80100
Cd119      Cd  0.36595455  0.11859473  0.92349254     1.59700
Cd120      Cd  0.35901057  0.13674413  0.86519218     1.59600
O121        O  0.33691275  0.14611288  0.92435353    -0.80100
O122        O  0.38080200  0.11563932  0.88851846    -1.90600
Cd123      Cd  0.37936181  0.07915296  0.87723148     1.59900
O124        O  0.34140116  0.16599799  0.88659222    -0.80000
O125        O  0.41503147  0.06760535  0.86247128    -0.78700
C126        C  0.40744803  0.15634976  0.83734008     0.83900
C127        C  0.41544065  0.14433788  0.94433201     0.83500
O128        O  0.44011414  0.09795070  0.88020798    -0.77600
C129        C  0.36128478  0.05975453  0.93018222     0.84300
O130        O  0.42170732  0.14992570  0.85633357    -0.77700
C131        C  0.33314416  0.16546253  0.90975785     0.84400
C132        C  0.32988292  0.08883074  0.84520316     0.84800
O133        O  0.33063585  0.11320158  0.84867277    -0.80200
C134        C  0.49401740  0.22887670  0.08381131     0.04000
C135        C  0.49155209  0.23025607  0.11077684    -0.12200
C136        C  0.50519649  0.24935866  0.12481120     0.01500
C137        C  0.52030782  0.26762754  0.11159118    -0.10700
C138        C  0.52238673  0.26638527  0.08472837     0.04000
C139        C  0.50939204  0.24697890  0.07116539    -0.10100
H140        H  0.48002711  0.21604437  0.12081887    -0.20800
H141        H  0.53082281  0.28233850  0.12221362     0.07100
H142        H  0.51101665  0.24618814  0.05034843     0.06900
C143        C  0.52356200  0.26737806  0.70008204     0.04000
C144        C  0.52140328  0.27036223  0.67315927    -0.12200
C145        C  0.50440046  0.25432811  0.65873540     0.01500
C146        C  0.48936948  0.23566073  0.67163553    -0.10700
C147        C  0.49167647  0.23264471  0.69838385     0.04000
C148        C  0.50841266  0.24868531  0.71220678    -0.10100
H149        H  0.53357754  0.28421562  0.66337957     0.09600
H150        H  0.47682510  0.22284086  0.66075852     0.07100
H151        H  0.50940435  0.24661129  0.73293521     0.06900
C152        C  0.62180235  0.00417883  0.75967823     0.04000
C153        C  0.60652104  0.01167507  0.78108790    -0.12200
C154        C  0.57934458  0.01086311  0.77961659     0.01500
C155        C  0.56754339  0.00343847  0.75658005    -0.10700
C156        C  0.58207056  0.99608564  0.73512822     0.04000
C157        C  0.60929934  0.99619624  0.73668415    -0.10100
H158        H  0.61570754  0.01771874  0.79889109     0.09600
H159        H  0.54656279  0.00311559  0.75538005     0.07100
H160        H  0.62063150  0.99004998  0.72020265     0.06900
C161        C  0.92890226  0.97261354  0.28024009     0.04000
C162        C  0.94412461  0.98325277  0.26082039    -0.12200
C163        C  0.93308191  0.99592078  0.23991350     0.01500
C164        C  0.90594786  0.99830496  0.23864777    -0.10700
C165        C  0.88999649  0.98786285  0.25813909     0.04000
C166        C  0.90170046  0.97506414  0.27911975    -0.10100
H167        H  0.96502000  0.98160810  0.26223038     0.09600
H168        H  0.89720335  0.00791912  0.22237839     0.07100
H169        H  0.88975721  0.96637370  0.29385998     0.06900
C170        C  0.26528041  0.31291401  0.99046665     0.04000
C171        C  0.26581614  0.33981504  0.98733711    -0.12200
C172        C  0.24889414  0.35571451  0.00182381     0.01500
C173        C  0.23105147  0.34427856  0.01902139    -0.10700
C174        C  0.23043448  0.31735213  0.02187970     0.04000
C175        C  0.24772156  0.30214975  0.00782186    -0.10100
H176        H  0.27936856  0.34834475  0.97391848     0.09600
H177        H  0.21757170  0.35619741  0.02974065     0.07100
H178        H  0.24692506  0.28138837  0.00995412     0.06900
C179        C  0.25809825  0.88328507  0.01945809     0.04000
C180        C  0.23478598  0.89618165  0.02617730    -0.12200
C181        C  0.23368746  0.92339142  0.02602591     0.01500
C182        C  0.25590965  0.93737281  0.01959141    -0.10700
C183        C  0.27899684  0.92514737  0.01278297     0.04000
C184        C  0.28003230  0.89810190  0.01257554    -0.10100
H185        H  0.21772300  0.88517680  0.03132666     0.09600
H186        H  0.25503012  0.95823187  0.01943635     0.07100
H187        H  0.29785098  0.88858197  0.00697094     0.06900
C188        C  0.32946117  0.98904005  0.27443509     0.04000
C189        C  0.31503666  0.00617441  0.25966057    -0.12200
C190        C  0.32670515  0.02641015  0.24645965     0.01500
C191        C  0.35368374  0.02998479  0.24837650    -0.10700
C192        C  0.36887106  0.01322426  0.26357361     0.04000
C193        C  0.35646806  0.99286240  0.27690648    -0.10100
H194        H  0.29424570  0.00342311  0.25797999     0.09600
H195        H  0.36293387  0.04518486  0.23751182     0.07100
H196        H  0.36788388  0.97943393  0.28800604     0.06900
C197        C  0.00589921  0.22342445  0.93670804     0.04000
C198        C  0.00398940  0.22174459  0.90962529    -0.12200
C199        C  0.99839216  0.24399977  0.89501195     0.01500
C200        C  0.99500509  0.26785407  0.90781021    -0.10700
C201        C  0.99760332  0.26963054  0.93468962     0.04000
C202        C  0.00281093  0.24738081  0.94872177    -0.10100
H203        H  0.00695596  0.20341153  0.90000584     0.09600
H204        H  0.99100497  0.28504406  0.89680225     0.07100
H205        H  0.00457420  0.24874245  0.96947405     0.06900
C206        C  0.99147042  0.28649735  0.32110703     0.04000
C207        C  0.99083413  0.28613200  0.34819524    -0.12200
C208        C  0.00456178  0.26696723  0.36176583     0.01500
C209        C  0.01862446  0.24812364  0.34788948    -0.10700
C210        C  0.01884429  0.24842055  0.32083935     0.04000
C211        C  0.00549456  0.26772180  0.30784299    -0.10100
H212        H  0.98000244  0.30069591  0.35862353     0.09600
H213        H  0.02898892  0.23319705  0.35806522     0.07100
H214        H  0.00585116  0.26802634  0.28695059     0.06900
O215        O  0.09305987  0.07398799  0.16056128    -0.77700
C216        C  0.14692537  0.06446120  0.09423824     0.83400
O217        O  0.17557842  0.12361261  0.17101382    -0.78800
O218        O  0.15757927  0.15551741  0.09020107    -0.80300
O219        O  0.07271568  0.14410547  0.09783915    -0.80100
O220        O  0.06472013  0.10351761  0.14730341    -0.78700
Zn221      Zn  0.12743117  0.08659000  0.14520115     1.55700
O222        O  0.10327066  0.12936869  0.07120611    -0.80100
Cd223      Cd  0.08751925  0.13311153  0.13386057     1.59700
Cd224      Cd  0.14621658  0.14437453  0.15313348     1.59600
O225        O  0.08422377  0.16082469  0.16269968    -0.80100
O226        O  0.12401179  0.12099003  0.13176042    -1.90600
Cd227      Cd  0.13486006  0.12231034  0.09496074     1.59900
O228        O  0.12348223  0.16218960  0.18091919    -0.80000
O229        O  0.15015633  0.08630961  0.08333915    -0.78700
C230        C  0.17707964  0.09954978  0.17559102     0.83900
C231        C  0.06983458  0.08229258  0.15831367     0.83500
O232        O  0.13673385  0.06261141  0.11646637    -0.77600
C233        C  0.08109749  0.13946832  0.07508680     0.84300
O234        O  0.15920296  0.08388542  0.16867275    -0.77700
C235        C  0.09942818  0.16783376  0.18086881     0.84400
C236        C  0.16447220  0.17391839  0.10530122     0.84800
O237        O  0.16168788  0.17269754  0.12967824    -0.80200
O238        O  0.43901948  0.86004543  0.58134778    -0.77700
C239        C  0.44780541  0.92296393  0.63954023     0.83400
O240        O  0.39468214  0.84969156  0.66924218    -0.78800
O241        O  0.35787715  0.92595561  0.65129561    -0.80300
O242        O  0.35600900  0.91358541  0.57379188    -0.80100
O243        O  0.40616129  0.87301519  0.55648769    -0.78700
Zn244      Zn  0.42758489  0.87196352  0.61779311     1.55700
O245        O  0.37945828  0.94268246  0.59549152    -0.80100
Cd246      Cd  0.37669849  0.87986765  0.58252265     1.59700
Cd247      Cd  0.37053821  0.86326135  0.64076058     1.59600
O248        O  0.35505391  0.84592594  0.58095572    -0.80100
O249        O  0.39214651  0.88374835  0.61695759    -1.90600
Cd250      Cd  0.38977275  0.92062138  0.62695468     1.59900
O251        O  0.35385712  0.83223446  0.62157675    -0.80000
O252        O  0.42536959  0.93321098  0.64167650    -0.78700
C253        C  0.41854074  0.84334694  0.66813807     0.83900
C254        C  0.42874991  0.86339991  0.55912252     0.83500
O255        O  0.45103669  0.90094671  0.62908404    -0.77600
C256        C  0.36168235  0.93700579  0.57937378     0.84300
O257        O  0.43231917  0.84704760  0.64795394    -0.77700
C258        C  0.34922963  0.82894521  0.59767638     0.84400
C259        C  0.33970003  0.91076349  0.65832696     0.84800
O260        O  0.34128426  0.88640233  0.65538204    -0.80200
O261        O  0.10824243  0.82469084  0.35038752    -0.77700
C262        C  0.17287025  0.81908835  0.40677159     0.83400
O263        O  0.09556947  0.87234291  0.43471590    -0.78800
O264        O  0.17014573  0.90779304  0.42310877    -0.80300
O265        O  0.16711187  0.90223909  0.33601171    -0.80100
O266        O  0.12274378  0.85496689  0.32356073    -0.78700
Zn267      Zn  0.12115306  0.83792868  0.38565919     1.55700
O268        O  0.19249560  0.89039220  0.36874120    -0.80100
Cd269      Cd  0.13099463  0.88586119  0.34739119     1.59700
Cd270      Cd  0.10971565  0.89484354  0.40525364     1.59600
O271        O  0.09720314  0.90818337  0.34340708    -0.80100
O272        O  0.13271906  0.87327525  0.38343547    -1.90600
Cd273      Cd  0.16840502  0.87704948  0.39718956     1.59900
O274        O  0.07994512  0.90939719  0.38297304    -0.80000
O275        O  0.18255816  0.84155940  0.41019552    -0.78700
C276        C  0.09130602  0.84816831  0.43541840     0.83900
C277        C  0.11207649  0.83319427  0.32759158     0.83500
O278        O  0.15086227  0.81572199  0.39622355    -0.77600
C279        C  0.18940383  0.90096866  0.34691815     0.84300
O280        O  0.09686989  0.83333061  0.41645925    -0.77700
C281        C  0.07859269  0.91363529  0.35884657     0.84400
C282        C  0.15434865  0.92628602  0.42731998     0.84800
O283        O  0.13054230  0.92500072  0.42097456    -0.80200
C284        C  0.00024416  0.76516131  0.62422857     0.04000
C285        C  0.97969686  0.75165714  0.61220444    -0.12200
C286        C  0.97889394  0.74947914  0.58523576     0.01500
C287        C  0.99847022  0.76058679  0.57050706    -0.10700
C288        C  0.01910154  0.77374961  0.58194751     0.04000
C289        C  0.01990615  0.77630705  0.60890865    -0.10100
H290        H  0.96468936  0.74275034  0.62372694     0.09600
H291        H  0.99773334  0.75867446  0.54969740     0.07100
H292        H  0.03581308  0.78660327  0.61793233     0.06900
C293        C  0.24455500  0.11615632  0.50554133     0.04000
C294        C  0.22685474  0.10468397  0.48812669    -0.12200
C295        C  0.22450988  0.07782743  0.48684641     0.01500
C296        C  0.23968145  0.06254385  0.50277326    -0.10700
C297        C  0.25743083  0.07321966  0.52013816     0.04000
C298        C  0.25989206  0.10024192  0.52151768    -0.10100
H299        H  0.21526660  0.11653772  0.47550057     0.09600
H300        H  0.23822935  0.04181950  0.50063485     0.07100
H301        H  0.27377013  0.10883429  0.53467351     0.06900
C302        C  0.27845598  0.67982646  0.52709433     0.04000
C303        C  0.27449439  0.65315280  0.52945812    -0.12200
C304        C  0.25883909  0.63989854  0.51135718     0.01500
C305        C  0.24707208  0.65369098  0.49111932    -0.10700
C306        C  0.25100116  0.68039736  0.48896676     0.04000
C307        C  0.26627665  0.69308302  0.50723751    -0.10100
H308        H  0.28438053  0.64262821  0.54446123     0.09600
H309        H  0.23553866  0.64358423  0.47682529     0.07100
H310        H  0.26906203  0.71374164  0.50591664     0.06900
C311        C  0.01006457  0.74358225  0.14684826     0.04000
C312        C  0.03086457  0.75354673  0.16171570    -0.12200
C313        C  0.03099813  0.75073316  0.18871144     0.01500
C314        C  0.00972370  0.73916754  0.20062053    -0.10700
C315        C  0.98858531  0.73006014  0.18649165     0.04000
C316        C  0.98899913  0.73158250  0.15946187    -0.10100
H317        H  0.04695755  0.76303534  0.15228621     0.09600
H318        H  0.00907238  0.73797910  0.22144383     0.07100
H319        H  0.97259370  0.72458826  0.14841269     0.06900
C320        C  0.14795219  0.99669304  0.74596713     0.04000
C321        C  0.16295243  0.98480856  0.72626875    -0.12200
C322        C  0.19029890  0.98569799  0.72733393     0.01500
C323        C  0.20230177  0.99789711  0.74819218    -0.10700
C324        C  0.18797759  0.00979349  0.76761540     0.04000
C325        C  0.16084520  0.00942238  0.76646718    -0.10100
H326        H  0.15347859  0.97510377  0.71031393     0.09600
H327        H  0.22330738  0.99836695  0.74923600     0.07100
H328        H  0.14982266  0.01890338  0.78153604     0.06900
C329        C  0.75629555  0.15445138  0.00966486     0.04000
C330        C  0.77631852  0.16788358  0.02283873    -0.12200
C331        C  0.77651053  0.19496580  0.02371289     0.01500
C332        C  0.75668900  0.20857415  0.01180777    -0.10700
C333        C  0.73631249  0.19598459  0.99923031     0.04000
C334        C  0.73628347  0.16887868  0.99778858    -0.10100
H335        H  0.79162006  0.15738968  0.03240029     0.09600
H336        H  0.75716580  0.22945928  0.01248051     0.07100
H337        H  0.72071688  0.15914584  0.98764508     0.06900
C338        C  0.52512949  0.73451929  0.81207510     0.04000
C339        C  0.51022053  0.75283723  0.79930184    -0.12200
C340        C  0.49476671  0.77042211  0.81259122     0.01500
C341        C  0.49292898  0.76885047  0.83950379    -0.10700
C342        C  0.50701733  0.74985427  0.85302379     0.04000
C343        C  0.52296874  0.73247518  0.83903524    -0.10100
H344        H  0.51110417  0.75389001  0.77847601     0.09600
H345        H  0.48112275  0.78266480  0.84990835     0.07100
H346        H  0.53473808  0.71859566  0.84917799     0.06900
C347        C  0.51782616  0.75797793  0.38120476     0.04000
C348        C  0.50819912  0.77995631  0.39448423    -0.12200
C349        C  0.51065683  0.78209822  0.42142499     0.01500
C350        C  0.52248389  0.76221444  0.43489762    -0.10700
C351        C  0.53236814  0.74045009  0.42247570     0.04000
C352        C  0.52959804  0.73799349  0.39556523    -0.10100
H353        H  0.49904507  0.79535649  0.38389164     0.09600
H354        H  0.52375529  0.76353936  0.45570511     0.07100
H355        H  0.53750346  0.72127879  0.38577888     0.06900
C356        C  0.74211821  0.86117482  0.50659920     0.04000
C357        C  0.72117328  0.84667027  0.51660615    -0.12200
C358        C  0.72179380  0.81954044  0.51537415     0.01500
C359        C  0.74335381  0.80734270  0.50459738    -0.10700
C360        C  0.76418323  0.82137847  0.49486886     0.04000
C361        C  0.76346591  0.84830374  0.49555574    -0.10100
H362        H  0.70474391  0.85635950  0.52528434     0.09600
H363        H  0.74409810  0.78646811  0.50398124     0.07100
H364        H  0.77961919  0.85922340  0.48791223     0.06900
C365        C  0.43193493  0.51150177  0.73094829     0.04000
C366        C  0.44585687  0.50979565  0.75392315    -0.12200
C367        C  0.43353415  0.50771619  0.77776091     0.01500
C368        C  0.40625863  0.50703657  0.77856298    -0.10700
C369        C  0.39169449  0.50918228  0.75561768     0.04000
C370        C  0.40469032  0.51160591  0.73179319    -0.10100
H371        H  0.46681486  0.50981407  0.75311853     0.09600
H372        H  0.39640175  0.50506300  0.79686290     0.07100
H373        H  0.39369124  0.51317547  0.71411161     0.06900
C374        C  0.81607917  0.50366338  0.73164076     0.04000
C375        C  0.80317506  0.49526183  0.75372659    -0.12200
C376        C  0.81654599  0.48691246  0.77550667     0.01500
C377        C  0.84378820  0.48661178  0.77516130    -0.10700
C378        C  0.85743430  0.49513184  0.75318457     0.04000
C379        C  0.84340254  0.50375771  0.73144179    -0.10100
H380        H  0.78218952  0.49550643  0.75416626     0.09600
H381        H  0.85431942  0.48004307  0.79191035     0.07100
H382        H  0.85368536  0.51028525  0.71450576     0.06900
C383        C  0.76995216  0.39440701  0.50485190     0.04000
C384        C  0.74480175  0.40432796  0.50883660    -0.12200
C385        C  0.74080359  0.43104671  0.50948240     0.01500
C386        C  0.76192898  0.44759721  0.50674954    -0.10700
C387        C  0.78711254  0.43829717  0.50327519     0.04000
C388        C  0.79109820  0.41149531  0.50199740    -0.10100
H389        H  0.72846771  0.39135233  0.51089287     0.09600
H390        H  0.75844151  0.46815841  0.50692889     0.07100
H391        H  0.81041532  0.40396517  0.49884535     0.06900
C392        C  0.69328182  0.51398194  0.27417878     0.04000
C393        C  0.70623935  0.49731747  0.25732772    -0.12200
C394        C  0.69302503  0.47928838  0.24234353     0.01500
C395        C  0.66612085  0.47667610  0.24500750    -0.10700
C396        C  0.65249236  0.49246780  0.26263077     0.04000
C397        C  0.66622461  0.51116757  0.27731828    -0.10100
H398        H  0.72709642  0.49879054  0.25515479     0.09600
H399        H  0.65571890  0.46308030  0.23289467     0.07100
H400        H  0.65580260  0.52411030  0.29004594     0.06900
O401        O  0.11760367  0.35660081  0.69529738    -0.77700
C402        C  0.18626538  0.39663402  0.67883653     0.83400
O403        O  0.07923516  0.41137637  0.63811779    -0.78800
O404        O  0.17136857  0.40947349  0.60253182    -0.80300
O405        O  0.15055633  0.31588266  0.62691056    -0.80100
O406        O  0.10313563  0.32556409  0.66903061    -0.78700
Zn407      Zn  0.12830710  0.38627315  0.67341773     1.55700
O408        O  0.18117222  0.34232211  0.61195641    -0.80100
Cd409      Cd  0.11908552  0.33874986  0.63437363     1.59700
Cd410      Cd  0.10917916  0.39692558  0.61574093     1.59600
O411        O  0.09669156  0.33474046  0.60096567    -0.80100
O412        O  0.13099300  0.37489212  0.63805175    -1.90600
Cd413      Cd  0.16725299  0.37750012  0.62603882     1.59900
O414        O  0.09418806  0.37480068  0.58561438    -0.80000
O415        O  0.19040165  0.38673594  0.65674777    -0.78700
C416        C  0.07810491  0.41527305  0.66237343     0.83900
C417        C  0.10645705  0.33500366  0.69161512     0.83500
O418        O  0.16327620  0.39984336  0.68758456    -0.77600
C419        C  0.17257659  0.31970552  0.61654861     0.84300
O420        O  0.09684709  0.40956725  0.67738666    -0.77700
C421        C  0.09047354  0.35057568  0.58324467     0.84400
C422        C  0.15612712  0.42804918  0.59715716     0.84800
O423        O  0.13177371  0.42690310  0.60145302    -0.80200
O424        O  0.62248993  0.14777105  0.33072160    -0.77700
C425        C  0.68892188  0.10429202  0.35200518     0.83400
O426        O  0.58296419  0.09970736  0.39474824    -0.78800
O427        O  0.67681405  0.10381835  0.42634761    -0.80300
O428        O  0.65568238  0.19561036  0.39689991    -0.80100
O429        O  0.60981932  0.18168737  0.35442723    -0.78700
Zn430      Zn  0.63154997  0.11967793  0.35611274     1.55700
O431        O  0.68756994  0.16971733  0.40988628    -0.80100
Cd432      Cd  0.62420648  0.17198353  0.39067358     1.59700
Cd433      Cd  0.61383386  0.11633424  0.41422561     1.59600
O434        O  0.60078101  0.17907521  0.42317785    -0.80100
O435        O  0.63567185  0.13555841  0.38959857    -1.90600
Cd436      Cd  0.67274626  0.13346258  0.39991384     1.59900
O437        O  0.59910099  0.14062740  0.44216451    -0.80000
O438        O  0.69537239  0.11951130  0.37020569    -0.78700
C439        C  0.58189299  0.09140060  0.37164456     0.83900
C440        C  0.61291007  0.17037474  0.33264592     0.83500
O441        O  0.66518960  0.10112663  0.34548168    -0.77600
C442        C  0.67850025  0.19217091  0.40552346     0.84300
O443        O  0.60028762  0.09524702  0.35564748    -0.77700
C444        C  0.59468515  0.16475602  0.44222936     0.84400
C445        C  0.66105404  0.08635870  0.43383843     0.84800
O446        O  0.63659594  0.08803048  0.43058965    -0.80200
C447        C  0.50511193  0.25411791  0.63006612     0.04000
C448        C  0.52330348  0.23807513  0.61751782    -0.12200
C449        C  0.52379855  0.23647720  0.59057398     0.01500
C450        C  0.50610536  0.25054429  0.57623991    -0.10700
C451        C  0.48755186  0.26628449  0.58794381     0.04000
C452        C  0.48718438  0.26839074  0.61512076    -0.10100
H453        H  0.53702389  0.22701026  0.62868293     0.09600
H454        H  0.50708347  0.24932410  0.55539627     0.07100
H455        H  0.47285119  0.28041932  0.62451887     0.06900
O456        O  0.39031770  0.35847053  0.32947076    -0.77700
C457        C  0.32746713  0.40687773  0.35164946     0.83400
O458        O  0.43406993  0.41175328  0.39014529    -0.78800
O459        O  0.34270753  0.40614102  0.42942535    -0.80300
O460        O  0.35916478  0.31643181  0.39838787    -0.80100
O461        O  0.40458184  0.32658944  0.35435890    -0.78700
Zn462      Zn  0.38380573  0.38818273  0.35364787     1.55700
O463        O  0.32816625  0.34385828  0.41043159    -0.80100
Cd464      Cd  0.39113074  0.33898217  0.39025966     1.59700
Cd465      Cd  0.40374355  0.39619318  0.41180925     1.59600
O466        O  0.41557337  0.33333949  0.42179733    -0.80100
O467        O  0.38089852  0.37565467  0.38842877    -1.90600
Cd468      Cd  0.34468384  0.37902384  0.40061450     1.59900
O469        O  0.41798343  0.37211527  0.44071325    -0.80000
O470        O  0.32214429  0.39573715  0.37273440    -0.78700
C471        C  0.43561735  0.41520399  0.36585536     0.83900
C472        C  0.40034569  0.33625348  0.33216633     0.83500
O473        O  0.35041324  0.40678267  0.34221922    -0.77600
C474        C  0.33649619  0.32097395  0.40697557     0.84300
O475        O  0.41715572  0.40897778  0.35061696    -0.77700
C476        C  0.42187544  0.34780297  0.44086337     0.84400
C477        C  0.35744597  0.42536161  0.43399324     0.84800
O478        O  0.38139008  0.42557292  0.42775417    -0.80200
C479        C  0.58361427  0.47348072  0.28132789     0.04000
C480        C  0.61067821  0.47698957  0.28272552    -0.12200
C481        C  0.62371221  0.49097133  0.26330188     0.01500
C482        C  0.60935010  0.50130591  0.24265730    -0.10700
C483        C  0.58237101  0.49771527  0.24130641     0.04000
C484        C  0.56988357  0.48442572  0.26101406    -0.10100
H485        H  0.62159270  0.46807836  0.29807012     0.09600
H486        H  0.61930125  0.51129580  0.22729207     0.07100
H487        H  0.54899862  0.48219628  0.26051380     0.06900
C488        C  0.50167521  0.72696045  0.92261147     0.04000
C489        C  0.50601846  0.75008106  0.93582345    -0.12200
C490        C  0.51067016  0.77299268  0.92271110     0.01500
C491        C  0.51128603  0.77275228  0.89567783    -0.10700
C492        C  0.50665333  0.74968347  0.88176641     0.04000
C493        C  0.50178299  0.72673250  0.89548698    -0.10100
H494        H  0.50576874  0.75024531  0.95670323     0.09600
H495        H  0.51533590  0.79045739  0.88550728     0.07100
H496        H  0.49808348  0.70890065  0.88516295     0.06900
O497        O  0.38343461  0.55442547  0.09944828    -0.77700
C498        C  0.45244225  0.57088036  0.14012156     0.83400
O499        O  0.34937605  0.61444692  0.15865069    -0.78800
O500        O  0.44298072  0.64721437  0.15104207    -0.80300
O501        O  0.41375045  0.62560059  0.05822286    -0.80100
O502        O  0.36779856  0.58148430  0.07009660    -0.78700
Zn503      Zn  0.39457956  0.57681949  0.12931303     1.55700
O504        O  0.44703653  0.63741410  0.08324030    -0.80100
Cd505      Cd  0.38431895  0.61629427  0.08317323     1.59700
Cd506      Cd  0.37937784  0.63513255  0.14213006     1.59600
O507        O  0.36162488  0.64966102  0.08160080    -0.80100
O508        O  0.39863951  0.61210406  0.11838085    -1.90600
Cd509      Cd  0.43557893  0.62306393  0.11926011     1.59900
O510        O  0.36448533  0.66586925  0.12150406    -0.80000
O511        O  0.45775649  0.59165256  0.12832431    -0.78700
C512        C  0.34649922  0.59023529  0.16154691     0.83900
C513        C  0.37133124  0.55862399  0.07851761     0.83500
O514        O  0.42908217  0.56323972  0.14361804    -0.77600
C515        C  0.43624315  0.63533311  0.06111493     0.84300
O516        O  0.36336263  0.57409095  0.15342924    -0.77700
C517        C  0.35824682  0.66800636  0.09783697     0.84400
C518        C  0.42875325  0.65314703  0.17035415     0.84800
O519        O  0.40437031  0.64889174  0.17039959    -0.80200
C520        C  0.26908986  0.56968638  0.49395248     0.04000
C521        C  0.27096198  0.59662226  0.49393052    -0.12200
C522        C  0.25684568  0.61140421  0.51197706     0.01500
C523        C  0.24127722  0.59883099  0.53047737    -0.10700
C524        C  0.23974630  0.57174991  0.53058798     0.04000
C525        C  0.25337884  0.55759618  0.51210264    -0.10100
H526        H  0.28326291  0.60605777  0.47993924     0.09600
H527        H  0.23076782  0.60997768  0.54474436     0.07100
H528        H  0.25226810  0.53672337  0.51229591     0.06900
O529        O  0.56032817  0.91209816  0.12595751    -0.77700
C530        C  0.57971210  0.87037412  0.05620090     0.83400
O531        O  0.61765486  0.85748608  0.16330775    -0.78800
O532        O  0.65692515  0.85925121  0.07235820    -0.80300
O533        O  0.62758011  0.95237876  0.09333655    -0.80100
O534        O  0.58834816  0.94065801  0.14238987    -0.78700
Zn535      Zn  0.58262176  0.88203584  0.11414803     1.55700
O536        O  0.64490160  0.92672662  0.06324419    -0.80100
Cd537      Cd  0.62227653  0.92867211  0.12420271     1.59700
Cd538      Cd  0.64041476  0.87102050  0.13353940     1.59600
O539        O  0.65684352  0.93274690  0.14484533    -0.80100
O540        O  0.61840701  0.89294038  0.11173248    -1.90600
Cd541      Cd  0.63194986  0.89069774  0.07617610     1.59900
O542        O  0.67116491  0.89233339  0.14787225    -0.80000
O543        O  0.60207890  0.88005797  0.05259651    -0.78700
C544        C  0.59344869  0.85243181  0.16363028     0.83900
C545        C  0.56517163  0.93265224  0.13873994     0.83500
O546        O  0.56976558  0.86843387  0.07873367    -0.77600
C547        C  0.63890954  0.94911981  0.07179949     0.84300
O548        O  0.57872009  0.85728239  0.14443734    -0.77700
C549        C  0.67434102  0.91650642  0.15096332     0.84400
C550        C  0.66121414  0.84038444  0.08747112     0.84800
O551        O  0.65507290  0.84116077  0.11127274    -0.80200
C552        C  0.72880262  0.69149253  0.01376125     0.04000
C553        C  0.72963897  0.66448704  0.01502155    -0.12200
C554        C  0.74959137  0.65062597  0.00226614     0.01500
C555        C  0.76885303  0.66453142  0.98873653    -0.10700
C556        C  0.76827148  0.69152724  0.98831431     0.04000
C557        C  0.74815412  0.70463207  0.00051905    -0.10100
H558        H  0.71495173  0.65444177  0.02597621     0.09600
H559        H  0.78438742  0.65453254  0.97886765     0.07100
H560        H  0.74782055  0.72552970  0.00010723     0.06900
O561        O  0.89905818  0.13100144  0.68004482    -0.77700
C562        C  0.83168152  0.09433825  0.65848879     0.83400
O563        O  0.93719049  0.08433256  0.61269455    -0.78800
O564        O  0.84272273  0.09178817  0.58474214    -0.80300
O565        O  0.86979538  0.18184126  0.61323165    -0.80100
O566        O  0.91178897  0.16573535  0.65817358    -0.78700
Zn567      Zn  0.88960888  0.10395205  0.65307137     1.55700
O568        O  0.83723689  0.15800237  0.59788796    -0.80100
Cd569      Cd  0.89902954  0.15647895  0.62128802     1.59700
Cd570      Cd  0.90610751  0.10151635  0.59388448     1.59600
O571        O  0.92373127  0.16318693  0.59041212    -0.80100
O572        O  0.88609199  0.12079841  0.62026496    -1.90600
Cd573      Cd  0.84915091  0.12167612  0.61043831     1.59900
O574        O  0.91974157  0.12746771  0.56636530    -0.80000
O575        O  0.82677481  0.11132757  0.64161359    -0.78700
C576        C  0.93869663  0.07582600  0.63565478     0.83900
C577        C  0.90831680  0.15382042  0.67936182     0.83500
O578        O  0.85488804  0.08705628  0.66324339    -0.77600
C579        C  0.84775233  0.17986203  0.60247487     0.84300
O580        O  0.92054970  0.07924321  0.65209215    -0.77700
C581        C  0.92648819  0.15104206  0.56907567     0.84400
C582        C  0.85670790  0.07335665  0.57613725     0.84800
O583        O  0.88143017  0.07350670  0.57798348    -0.80200
C584        C  0.68984698  0.99274085  0.78556786     0.04000
C585        C  0.66273921  0.99277477  0.78337880    -0.12200
C586        C  0.65066884  0.00397571  0.76171480     0.01500
C587        C  0.66635363  0.01460808  0.74203898    -0.10700
C588        C  0.69356547  0.01402192  0.74410708     0.04000
C589        C  0.70482791  0.00354564  0.76612223    -0.10100
H590        H  0.65114025  0.98402151  0.79835696     0.09600
H591        H  0.65747794  0.02303275  0.72519282     0.07100
H592        H  0.72575519  0.00339095  0.76807593     0.06900
O593        O  0.87985434  0.94843723  0.91557161    -0.77700
C594        C  0.94362497  0.92615702  0.86949006     0.83400
O595        O  0.83490295  0.89189642  0.86069509    -0.78800
O596        O  0.92524418  0.85111977  0.86188333    -0.80300
O597        O  0.90806469  0.87683124  0.95573133    -0.80100
O598        O  0.86367607  0.92290004  0.94609315    -0.78700
Zn599      Zn  0.88649088  0.92536817  0.88496864     1.55700
O600        O  0.93824397  0.86286879  0.92822855    -0.80100
Cd601      Cd  0.87693211  0.88712226  0.93273973     1.59700
Cd602      Cd  0.86461324  0.86890073  0.87434290     1.59600
O603        O  0.85146539  0.85602739  0.93588442    -0.80100
O604        O  0.88796400  0.89010840  0.89637344    -1.90600
Cd605      Cd  0.92342083  0.87618033  0.89314644     1.59900
O606        O  0.84918482  0.83949379  0.89603927    -0.80000
O607        O  0.94743849  0.90492473  0.88093205    -0.78700
C608        C  0.83435430  0.91622272  0.85753555     0.83900
C609        C  0.86876844  0.94531028  0.93727194     0.83500
O610        O  0.92099847  0.93612290  0.86767873    -0.77600
C611        C  0.93001343  0.86651451  0.95120043     0.84300
O612        O  0.85362333  0.93059937  0.86355163    -0.77700
C613        C  0.84481923  0.83812456  0.92014101     0.84400
C614        C  0.90966552  0.84708021  0.84314168     0.84800
O615        O  0.88580020  0.85336817  0.84413520    -0.80200
O616        O  0.10933320  0.64461069  0.82360731    -0.77700
C617        C  0.18050945  0.60761704  0.83961009     0.83400
O618        O  0.07356315  0.58364786  0.87682352    -0.78800
O619        O  0.16483460  0.58789508  0.91265589    -0.80300
O620        O  0.13703593  0.68265183  0.90293935    -0.80100
O621        O  0.09671372  0.67508714  0.85145666    -0.78700
Zn622      Zn  0.12162684  0.61415116  0.84402791     1.55700
O623        O  0.17035582  0.65650243  0.91121490    -0.80100
Cd624      Cd  0.10859557  0.65909598  0.88660153     1.59700
Cd625      Cd  0.10218464  0.59924541  0.90040557     1.59600
O626        O  0.07951751  0.65750558  0.91491363    -0.80100
O627        O  0.12305553  0.62400310  0.88010112    -1.90600
Cd628      Cd  0.15923138  0.62219156  0.89270264     1.59900
O629        O  0.08559756  0.61835020  0.93144605    -0.80000
O630        O  0.18364252  0.61703986  0.86207165    -0.78700
C631        C  0.07388243  0.57983181  0.85252910     0.83900
C632        C  0.09939301  0.66657014  0.82841218     0.83500
O633        O  0.15789213  0.60347846  0.83023047    -0.77600
C634        C  0.15958002  0.67867617  0.91220866     0.84300
O635        O  0.09258417  0.58778643  0.83844566    -0.77700
C636        C  0.07608433  0.64096846  0.93275680     0.84400
C637        C  0.14995386  0.56870856  0.91708092     0.84800
O638        O  0.12556732  0.56967141  0.91332562    -0.80200
C639        C  0.00140876  0.76735492  0.65273060     0.04000
C640        C  0.98308535  0.78256853  0.66614863    -0.12200
C641        C  0.98512707  0.78566689  0.69295410     0.01500
C642        C  0.00472856  0.77294418  0.70621649    -0.10700
C643        C  0.02302250  0.75775402  0.69349778     0.04000
C644        C  0.02133985  0.75488318  0.66657343    -0.10100
H645        H  0.96804877  0.79261637  0.65571614     0.09600
H646        H  0.00547486  0.77480773  0.72700608     0.07100
H647        H  0.03547433  0.74321877  0.65642543     0.06900
C648        C  0.92830171  0.50957059  0.76899694     0.04000
C649        C  0.94049260  0.49174780  0.75290329    -0.12200
C650        C  0.92645929  0.47551464  0.73663014     0.01500
C651        C  0.89928744  0.47716222  0.73609136    -0.10700
C652        C  0.88629240  0.49443052  0.75283959     0.04000
C653        C  0.90099915  0.51052327  0.76954052    -0.10100
H654        H  0.96149847  0.49053925  0.75290436     0.09600
H655        H  0.88830820  0.46456664  0.72342724     0.07100
H656        H  0.89131123  0.52413554  0.78215157     0.06900
C657        C  0.32195875  0.48521715  0.75360515     0.04000
C658        C  0.30873718  0.50808734  0.75886697    -0.12200
C659        C  0.32185875  0.53130076  0.76290502     0.01500
C660        C  0.34910875  0.53159630  0.76238085    -0.10700
C661        C  0.36293268  0.50882570  0.75657419     0.04000
C662        C  0.34918282  0.48569675  0.75184446    -0.10100
H663        H  0.28774497  0.50790231  0.75968673     0.09600
H664        H  0.35946829  0.54942368  0.76602690     0.07100
H665        H  0.35963026  0.46816250  0.74731777     0.06900
C666        C  0.74249453  0.88971155  0.50797984     0.04000
C667        C  0.72503838  0.90438511  0.49311825    -0.12200
C668        C  0.72734377  0.93136165  0.49267898     0.01500
C669        C  0.74620662  0.94344818  0.50766032    -0.10700
C670        C  0.76321279  0.92939771  0.52292324     0.04000
C671        C  0.76178029  0.90240388  0.52273823    -0.10100
H672        H  0.71062721  0.89485935  0.48122206     0.09600
H673        H  0.74770977  0.96430656  0.50736379     0.07100
H674        H  0.77519721  0.89136333  0.53427759     0.06900
C675        C  0.00435296  0.26661747  0.39037290     0.04000
C676        C  0.02047867  0.28366411  0.40447853    -0.12200
C677        C  0.02086060  0.28273766  0.43152676     0.01500
C678        C  0.00451049  0.26563487  0.44426558    -0.10700
C679        C  0.98835507  0.24868031  0.43080881     0.04000
C680        C  0.98860147  0.24877642  0.40370455    -0.10100
H681        H  0.03322117  0.29683751  0.39446222     0.09600
H682        H  0.00488415  0.26508433  0.46514915     0.07100
H683        H  0.97627125  0.23554792  0.39308584     0.06900
C684        C  0.99814509  0.24311048  0.86633101     0.04000
C685        C  0.01867650  0.25477365  0.85265671    -0.12200
C686        C  0.01902847  0.25416060  0.82564141     0.01500
C687        C  0.99815937  0.24330361  0.81237943    -0.10700
C688        C  0.97722417  0.23225302  0.82528905     0.04000
C689        C  0.97746826  0.23150150  0.85246487    -0.10100
H690        H  0.03464921  0.26359174  0.86303149     0.09600
H691        H  0.99831749  0.24331619  0.79149588     0.07100
H692        H  0.96145576  0.22275475  0.86270021     0.06900
C693        C  0.50540721  0.73325912  0.31257379     0.04000
C694        C  0.51416269  0.75420152  0.29835652    -0.12200
C695        C  0.52393009  0.77634696  0.31026287     0.01500
C696        C  0.52538847  0.77745022  0.33732114    -0.10700
C697        C  0.51654070  0.75651194  0.35238187     0.04000
C698        C  0.50643420  0.73437846  0.33969462    -0.10100
H699        H  0.51326502  0.75319896  0.27750271     0.09600
H700        H  0.53321529  0.79452362  0.34659582     0.07100
H701        H  0.49932061  0.71827482  0.35081677     0.06900
C702        C  0.81843720  0.00526637  0.26822054     0.04000
C703        C  0.84543906  0.00311517  0.27257994    -0.12200
C704        C  0.86122849  0.98888737  0.25519321     0.01500
C705        C  0.84956507  0.97625851  0.23394370    -0.10700
C706        C  0.82288735  0.97867396  0.22948357     0.04000
C707        C  0.80793877  0.99358513  0.24615577    -0.10100
H708        H  0.85414756  0.01252028  0.28912779     0.09600
H709        H  0.86128430  0.96497496  0.22074853     0.07100
H710        H  0.78763283  0.99588649  0.24157098     0.06900
C711        C  0.25996308  0.85448000  0.01903527     0.04000
C712        C  0.28012791  0.84202652  0.03270414    -0.12200
C713        C  0.28371171  0.81525334  0.03031367     0.01500
C714        C  0.26715409  0.80106644  0.01440179    -0.10700
C715        C  0.24747867  0.81272697  0.00021059     0.04000
C716        C  0.24339792  0.83949113  0.00304733    -0.10100
H717        H  0.29327860  0.85320072  0.04462383     0.09600
H718        H  0.26983992  0.78040023  0.01296703     0.07100
H719        H  0.22846503  0.84880268  0.99182392     0.06900
C720        C  0.76975466  0.32601440  0.47857724     0.04000
C721        C  0.76688602  0.35288429  0.48023636    -0.12200
C722        C  0.77384978  0.36620290  0.50300582     0.01500
C723        C  0.78276438  0.35226915  0.52449057    -0.10700
C724        C  0.78444309  0.32528922  0.52312666     0.04000
C725        C  0.77875400  0.31265570  0.50001356    -0.10100
H726        H  0.75918604  0.36338033  0.46399720     0.09600
H727        H  0.78710024  0.36220706  0.54239280     0.07100
H728        H  0.78004951  0.29182957  0.49923944     0.06900
C729        C  0.19396965  0.49897364  0.26917878     0.04000
C730        C  0.20670873  0.51415186  0.25109239    -0.12200
C731        C  0.19333704  0.53027008  0.23452362     0.01500
C732        C  0.16624109  0.53236167  0.23671870    -0.10700
C733        C  0.15263528  0.51812488  0.25567555     0.04000
C734        C  0.16683862  0.50149456  0.27208502    -0.10100
H735        H  0.22763596  0.51303675  0.24936484     0.09600
H736        H  0.15577736  0.54466026  0.22357362     0.07100
H737        H  0.15671774  0.48965893  0.28593734     0.06900
C738        C  0.24950641  0.38415502  0.99847215     0.04000
C739        C  0.26998012  0.39900732  0.00910554    -0.12200
C740        C  0.27128096  0.42577247  0.00478505     0.01500
C741        C  0.25184816  0.43733243  0.99015146    -0.10700
C742        C  0.23177666  0.42302854  0.97907151     0.04000
C743        C  0.23029091  0.39639797  0.98353886    -0.10100
H744        H  0.28499622  0.38968143  0.02021082     0.09600
H745        H  0.25217088  0.45796503  0.98719751     0.07100
H746        H  0.21490927  0.38514660  0.97475240     0.06900
C747        C  0.39777981  0.01555463  0.26320073     0.04000
C748        C  0.41199730  0.02231523  0.28564414    -0.12200
C749        C  0.43927573  0.02449892  0.28456770     0.01500
C750        C  0.45188507  0.02048837  0.26108007    -0.10700
C751        C  0.43848070  0.01320039  0.23883810     0.04000
C752        C  0.41133060  0.01072700  0.23995899    -0.10100
H753        H  0.40198463  0.02550762  0.30371092     0.09600
H754        H  0.47279584  0.02217185  0.26041776     0.07100
H755        H  0.40073795  0.00495051  0.22285315     0.06900
C756        C  0.50514612  0.24949932  0.15330029     0.04000
C757        C  0.48341165  0.25853777  0.16710830    -0.12200
C758        C  0.48392813  0.25922145  0.19415571     0.01500
C759        C  0.50635221  0.25156729  0.20710090    -0.10700
C760        C  0.52809194  0.24265509  0.19376967     0.04000
C761        C  0.52739914  0.24133914  0.16677103    -0.10100
H762        H  0.46625294  0.26478149  0.15690131     0.09600
H763        H  0.50682639  0.25236741  0.22796216     0.07100
H764        H  0.54417052  0.23440664  0.15626698     0.06900
C765        C  0.24730359  0.14467389  0.50655600     0.04000
C766        C  0.24494226  0.15807100  0.53019767    -0.12200
C767        C  0.24732932  0.18503585  0.53104959     0.01500
C768        C  0.25150595  0.19846492  0.50820554    -0.10700
C769        C  0.25374078  0.18568466  0.48461842     0.04000
C770        C  0.25188109  0.15869816  0.48376731    -0.10100
H771        H  0.24107396  0.14759657  0.54775544     0.09600
H772        H  0.25299565  0.21928247  0.50873027     0.07100
H773        H  0.25397429  0.14867749  0.46551981     0.06900
C774        C  0.00976862  0.74671582  0.11832568     0.04000
C775        C  0.01220620  0.72504931  0.10175152    -0.12200
C776        C  0.01153036  0.72813815  0.07479943     0.01500
C777        C  0.00903039  0.75296671  0.06481304    -0.10700
C778        C  0.00625542  0.77458157  0.08066923     0.04000
C779        C  0.00647346  0.77145138  0.10755749    -0.10100
H780        H  0.01436872  0.70598659  0.10979839     0.09600
H781        H  0.00884751  0.75559591  0.04415902     0.07100
H782        H  0.00404467  0.78808615  0.12002700     0.06900
C783        C  0.75617516  0.12554170  0.00854890     0.04000
C784        C  0.77950067  0.11160519  0.00457637    -0.12200
C785        C  0.77932210  0.08447879  0.00398649     0.01500
C786        C  0.75584299  0.07143848  0.00658927    -0.10700
C787        C  0.73245489  0.08457934  0.00972096     0.04000
C788        C  0.73267479  0.11163113  0.01130563    -0.10100
H789        H  0.79766510  0.12174371  0.00196378     0.09600
H790        H  0.75578016  0.05057090  0.00587866     0.07100
H791        H  0.71460920  0.12175403  0.01446342     0.06900
C792        C  0.07793853  0.99126392  0.76894623     0.04000
C793        C  0.10512152  0.98980648  0.76829836    -0.12200
C794        C  0.11894895  0.99609591  0.74560956     0.01500
C795        C  0.10488145  0.00316695  0.72332680    -0.10700
C796        C  0.07756702  0.00391029  0.72385471     0.04000
C797        C  0.06457840  0.99812524  0.74669039    -0.10100
H798        H  0.11549905  0.98431875  0.78553393     0.09600
H799        H  0.11507576  0.00825329  0.70584948     0.07100
H800        H  0.04358418  0.99899538  0.74713493     0.06900
C801        C  0.18082381  0.73736836  0.94276334     0.21200
C802        C  0.17830334  0.76129375  0.95556513    -0.38700
C803        C  0.20159888  0.77315476  0.96344213     0.20200
C804        C  0.22542097  0.76195030  0.95863822     0.22800
C805        C  0.22793144  0.73804075  0.94608018    -0.39200
C806        C  0.20473613  0.72611968  0.93850929     0.21600
N807        N  0.16174111  0.72196188  0.93385256    -0.32500
C808        C  0.17356800  0.70060248  0.92422154    -0.10000
C809        C  0.20042034  0.70250854  0.92684038    -0.28800
N810        N  0.24448743  0.77589809  0.96937501    -0.45400
C811        C  0.23302991  0.79604387  0.98169806    -0.04700
C812        C  0.20616076  0.79522961  0.97808465    -0.22100
H813        H  0.15957088  0.76973916  0.95961315     0.19700
H814        H  0.24660492  0.72905052  0.94304761     0.18500
H815        H  0.21483289  0.68857795  0.92086428     0.14800
H816        H  0.19182907  0.80783385  0.98665009     0.14700
H817        H  0.14184782  0.72557034  0.93461317     0.32800
H818        H  0.26416882  0.77120372  0.96930365     0.35600
C819        C  0.20541625  0.47052799  0.93877056     0.21200
C820        C  0.20864981  0.49358004  0.92522633    -0.38700
C821        C  0.18809489  0.51105250  0.92681243     0.20200
C822        C  0.16560456  0.50576038  0.94029303     0.22800
C823        C  0.16244365  0.48272220  0.95413134    -0.39200
C824        C  0.18337897  0.46537533  0.95304595     0.21600
N825        N  0.22385851  0.45308046  0.94351685    -0.32500
C826        C  0.21417774  0.43700133  0.96161032    -0.10000
C827        C  0.18864247  0.44374395  0.96766204    -0.28800
N828        N  0.14913139  0.52581207  0.93899957    -0.45400
C829        C  0.16156988  0.54413111  0.92511146    -0.04700
C830        C  0.18591547  0.53560091  0.91721342    -0.22100
H831        H  0.22648481  0.49813777  0.91524848     0.19700
H832        H  0.14550381  0.47914950  0.96587828     0.18500
H833        H  0.17698874  0.43627551  0.98325590     0.14800
H834        H  0.19989935  0.54580174  0.90553152     0.14700
H835        H  0.24311449  0.45406480  0.93733601     0.32800
H836        H  0.13067502  0.52706325  0.94719490     0.35600
C837        C  0.03474146  0.66873902  0.98072623     0.21200
C838        C  0.01579919  0.68553035  0.99032458    -0.38700
C839        C  0.01546839  0.68900270  0.01712040     0.20200
C840        C  0.03293500  0.67707741  0.03332093     0.22800
C841        C  0.05150978  0.65962791  0.02372603    -0.39200
C842        C  0.05156575  0.65578403  0.99683295     0.21600
N843        N  0.04085615  0.66459595  0.95586243    -0.32500
C844        C  0.06142707  0.64845714  0.95600374    -0.10000
C845        C  0.06850205  0.64226747  0.98118954    -0.28800
N846        N  0.03171209  0.68746057  0.05723212    -0.45400
C847        C  0.01358120  0.70636055  0.05606063    -0.04700
C848        C  0.00245819  0.70704050  0.03150340    -0.22100
H849        H  0.00328948  0.69640202  0.97770704     0.19700
H850        H  0.06585577  0.65088172  0.03607203     0.18500
H851        H  0.08496455  0.63091847  0.98720900     0.14800
H852        H  0.98882898  0.72102246  0.02419976     0.14700
H853        H  0.03211670  0.67288701  0.93979674     0.32800
H854        H  0.04441225  0.68393115  0.07245079     0.35600
C855        C  0.28273726  0.57712832  0.79482933     0.21200
C856        C  0.27200585  0.58719049  0.81758840    -0.38700
C857        C  0.24541785  0.59283042  0.81677756     0.20200
C858        C  0.23041046  0.58861295  0.79507271     0.22800
C859        C  0.24117861  0.57878615  0.77220756    -0.39200
C860        C  0.26786474  0.57333057  0.77293974     0.21600
N861        N  0.30611766  0.56589944  0.79221431    -0.32500
C862        C  0.30598716  0.55429999  0.76875683    -0.10000
C863        C  0.28272601  0.55935720  0.75590175    -0.28800
N864        N  0.20520112  0.59347993  0.80003144    -0.45400
C865        C  0.20428098  0.60105279  0.82506490    -0.04700
C866        C  0.22900966  0.60092690  0.83602366    -0.22100
H867        H  0.28321004  0.58911689  0.83511464     0.19700
H868        H  0.22937252  0.57429032  0.75554304     0.18500
H869        H  0.27601953  0.55045361  0.73819900     0.14800
H870        H  0.23416491  0.60531318  0.85577712     0.14700
H871        H  0.31970806  0.56312862  0.80683231     0.32800
H872        H  0.18960828  0.59131655  0.78737629     0.35600
C873        C  0.01250581  0.55254539  0.83416734     0.21200
C874        C  0.98693182  0.54333744  0.83736190    -0.38700
C875        C  0.97256806  0.53950648  0.81453257     0.20200
C876        C  0.98303552  0.54474167  0.79061719     0.22800
C877        C  0.00855754  0.55342607  0.78743628    -0.39200
C878        C  0.02283862  0.55704657  0.81004768     0.21600
N879        N  0.02988014  0.55880935  0.85259343    -0.32500
C880        C  0.05134306  0.56730999  0.83997968    -0.10000
C881        C  0.04768459  0.56615543  0.81341268    -0.28800
N882        N  0.96661656  0.53786547  0.77184438    -0.45400
C883        C  0.94558612  0.52735046  0.78342216    -0.04700
C884        C  0.94837203  0.52840389  0.81024126    -0.22100
H885        H  0.97894497  0.53919235  0.85615194     0.19700
H886        H  0.01680188  0.55687216  0.76860418     0.18500
H887        H  0.06091328  0.57250113  0.79856305     0.14800
H888        H  0.93586539  0.51964641  0.82444827     0.14700
H889        H  0.02696323  0.55828723  0.87247824     0.32800
H890        H  0.97059520  0.53801760  0.75211427     0.35600
C891        C  0.07822019  0.69156287  0.76784253     0.21200
C892        C  0.06975966  0.69039077  0.74209307    -0.38700
C893        C  0.06189777  0.71386379  0.73132313     0.20200
C894        C  0.06275070  0.73668279  0.74520375     0.22800
C895        C  0.07093102  0.73780208  0.77098280    -0.39200
C896        C  0.07845606  0.71434090  0.78181403     0.21600
N897        N  0.08580040  0.67186563  0.78267572    -0.32500
C898        C  0.09059764  0.68206651  0.80635096    -0.10000
C899        C  0.08612711  0.70855541  0.80660025    -0.28800
N900        N  0.05180533  0.75574269  0.73182282    -0.45400
C901        C  0.04302272  0.74506869  0.70950860    -0.04700
C902        C  0.04956099  0.71898863  0.70821681    -0.22100
H903        H  0.06849984  0.67237914  0.73154908     0.19700
H904        H  0.07049723  0.75551472  0.78208937     0.18500
H905        H  0.08820826  0.72175518  0.82269035     0.14800
H906        H  0.04347030  0.70509022  0.69380752     0.14700
H907        H  0.08717175  0.65253004  0.77715321     0.32800
H908        H  0.04864716  0.77450606  0.73850805     0.35600
C909        C  0.99146495  0.96551642  0.83848797     0.21200
C910        C  0.00152252  0.98688012  0.82542849    -0.38700
C911        C  0.02683248  0.98415233  0.81579776     0.20200
C912        C  0.04111542  0.96182677  0.81875676     0.22800
C913        C  0.03111648  0.94051954  0.83199457    -0.39200
C914        C  0.00587745  0.94332598  0.84177481     0.21600
N915        N  0.96732536  0.96261944  0.84803226    -0.32500
C916        C  0.96651185  0.93843742  0.85766301    -0.10000
C917        C  0.99021285  0.92591684  0.85414800    -0.28800
N918        N  0.06305364  0.96276279  0.80467947    -0.45400
C919        C  0.06250950  0.98566525  0.79230698    -0.04700
C920        C  0.04046973  0.99969133  0.79930011    -0.22100
H921        H  0.99006484  0.00394568  0.82197758     0.19700
H922        H  0.04176023  0.92266391  0.83361802     0.18500
H923        H  0.99505825  0.90633448  0.85926374     0.14800
H924        H  0.03385120  0.01760763  0.79107278     0.14700
H925        H  0.95230434  0.97605753  0.84768977     0.32800
H926        H  0.07606165  0.94767438  0.80149151     0.35600
C927        C  0.85090255  0.00831566  0.95919639     0.21200
C928        C  0.84487508  0.03453732  0.95621411    -0.38700
C929        C  0.83056777  0.04592176  0.97629158     0.20200
C930        C  0.82303172  0.03212764  0.99772962     0.22800
C931        C  0.82899302  0.00590459  0.00066218    -0.39200
C932        C  0.84311574  0.99451285  0.98053633     0.21600
N933        N  0.86200638  0.99262929  0.94173907    -0.32500
C934        C  0.86100533  0.96859070  0.95180630    -0.10000
C935        C  0.84950069  0.96901464  0.97612322    -0.28800
N936        N  0.80645983  0.04595776  0.01211487    -0.45400
C937        C  0.80277786  0.06857335  0.99965853    -0.04700
C938        C  0.81799954  0.06945976  0.97743064    -0.22100
H939        H  0.84966627  0.04489974  0.93883873     0.19700
H940        H  0.82179951  0.99481140  0.01672731     0.18500
H941        H  0.84517519  0.95273193  0.98829962     0.14800
H942        H  0.81719781  0.08375280  0.96239066     0.14700
H943        H  0.86863085  0.99777500  0.92347586     0.32800
H944        H  0.79610028  0.03927236  0.02802266     0.35600
C945        C  0.95601028  0.84808393  0.01242376     0.21200
C946        C  0.95461808  0.84103127  0.03849932    -0.38700
C947        C  0.97614222  0.82772461  0.04826524     0.20200
C948        C  0.99757357  0.82227769  0.03317983     0.22800
C949        C  0.99897214  0.82938139  0.00713235    -0.39200
C950        C  0.97730300  0.84228622  0.99729196     0.21600
N951        N  0.93695830  0.85817762  0.99802028    -0.32500
C952        C  0.94594126  0.85848254  0.97344586    -0.10000
C953        C  0.97117946  0.84887874  0.97226431    -0.28800
N954        N  0.01324070  0.80565866  0.04523514    -0.45400
C955        C  0.00147614  0.79956162  0.06780597    -0.04700
C956        C  0.97860046  0.81365250  0.07069891    -0.22100
H957        H  0.93725831  0.84403653  0.04982066     0.19700
H958        H  0.01497345  0.82358678  0.99493249     0.18500
H959        H  0.98298032  0.84601284  0.95525791     0.14800
H960        H  0.96376380  0.81078938  0.08513899     0.14700
H961        H  0.91846964  0.86339076  0.00434328     0.32800
H962        H  0.02928007  0.79645504  0.03706419     0.35600
C963        C  0.92302613  0.82272593  0.77987908     0.21200
C964        C  0.91844143  0.81069107  0.75588474    -0.38700
C965        C  0.93915869  0.81146359  0.73819426     0.20200
C966        C  0.96222392  0.82387640  0.74395796     0.22800
C967        C  0.96693027  0.83532773  0.76796670    -0.39200
C968        C  0.94665178  0.83397306  0.78569471     0.21600
N969        N  0.90670752  0.82490677  0.80005664    -0.32500
C970        C  0.92044795  0.83712252  0.81883860    -0.10000
C971        C  0.94545045  0.84284579  0.81060036    -0.28800
N972        N  0.97988488  0.81953529  0.72560589    -0.45400
C973        C  0.96877509  0.80326056  0.70833203    -0.04700
C974        C  0.94302724  0.79823033  0.71520940    -0.22100
H975        H  0.90049499  0.80069151  0.75167146     0.19700
H976        H  0.98547560  0.84385739  0.77282433     0.18500
H977        H  0.96031579  0.85334993  0.82101167     0.14800
H978        H  0.93025608  0.78394871  0.70673530     0.14700
H979        H  0.88738562  0.81889091  0.80087473     0.32800
H980        H  0.99951284  0.82447210  0.72662386     0.35600
C981        C  0.73951278  0.97511305  0.82820067     0.21200
C982        C  0.76451984  0.97919828  0.83807540    -0.38700
C983        C  0.77971535  0.95711798  0.84127631     0.20200
C984        C  0.77064824  0.93270114  0.83537094     0.22800
C985        C  0.74558671  0.92857940  0.82543317    -0.39200
C986        C  0.73039011  0.95076751  0.82200699     0.21600
N987        N  0.72329133  0.99322727  0.81947715    -0.32500
C988        C  0.70388561  0.98061266  0.80703707    -0.10000
C989        C  0.70736969  0.95399490  0.80876353    -0.28800
N990        N  0.78917448  0.91499729  0.83963804    -0.45400
C991        C  0.81023553  0.92830074  0.84815126    -0.04700
C992        C  0.80502259  0.95463825  0.84937039    -0.22100
H993        H  0.77203761  0.99833306  0.84185076     0.19700
H994        H  0.73886275  0.90963799  0.81967899     0.18500
H995        H  0.69683451  0.93925510  0.79825451     0.14800
H996        H  0.81786734  0.96987860  0.85581559     0.14700
H997        H  0.72702652  0.01300528  0.81893929     0.32800
H998        H  0.78753141  0.89508358  0.83710323     0.35600
C999        C  0.92377462  0.17320573  0.74400542     0.21200
C1000       C  0.93066188  0.16996862  0.77002022    -0.38700
C1001       C  0.93763315  0.19253361  0.78354281     0.20200
C1002       C  0.93739840  0.21643542  0.77195137     0.22800
C1003       C  0.93074623  0.21962565  0.74595496    -0.39200
C1004       C  0.92413104  0.19711572  0.73243792     0.21600
N1005       N  0.91785759  0.15472278  0.72665054    -0.32500
C1006       C  0.91482388  0.16695060  0.70383055    -0.10000
C1007       C  0.91857277  0.19342214  0.70670706    -0.28800
N1008       N  0.94807233  0.23423747  0.78749766    -0.45400
C1009       C  0.95602999  0.22176042  0.80898044    -0.04700
C1010       C  0.94926707  0.19569890  0.80744547    -0.22100
H1011       H  0.93173120  0.15112779  0.77872425     0.19700
H1012       H  0.93190890  0.23815436  0.73659822     0.18500
H1013       H  0.91760156  0.20796291  0.69191148     0.14800
H1014       H  0.95530017  0.18055704  0.82031957     0.14700
H1015       H  0.91658732  0.13494663  0.72998016     0.32800
H1016       H  0.95241747  0.25323055  0.78249524     0.35600
C1017       C  0.94945013  0.17488113  0.50834689     0.21200
C1018       C  0.95996853  0.17416615  0.48326367    -0.38700
C1019       C  0.96154421  0.19802229  0.47050997     0.20200
C1020       C  0.95299140  0.22060648  0.48193905     0.22800
C1021       C  0.94286233  0.22135378  0.50695826    -0.39200
C1022       C  0.94163509  0.19774882  0.51971158     0.21600
N1023       N  0.94578021  0.15506180  0.52464464    -0.32500
C1024       C  0.93598172  0.16561880  0.54659858    -0.10000
C1025       C  0.93326008  0.19219538  0.54418474    -0.28800
N1026       N  0.95868564  0.24094460  0.46725159    -0.45400
C1027       C  0.97153697  0.23171076  0.44639179    -0.04700
C1028       C  0.97339383  0.20483930  0.44751539    -0.22100
H1029       H  0.96701767  0.15650208  0.47460950     0.19700
H1030       H  0.93703555  0.23921213  0.51612654     0.18500
H1031       H  0.92532472  0.20556332  0.55818508     0.14800
H1032       H  0.98445923  0.19239285  0.43485894     0.14700
H1033       H  0.94948953  0.13560385  0.52101562     0.32800
H1034       H  0.95618114  0.26028757  0.47233382     0.35600
C1035       C  0.98826303  0.03473927  0.66045510     0.21200
C1036       C  0.99856912  0.01265163  0.67196071    -0.38700
C1037       C  0.02439904  0.01452321  0.68027970     0.20200
C1038       C  0.03888566  0.03682627  0.67781766     0.22800
C1039       C  0.02859226  0.05894434  0.66612312    -0.39200
C1040       C  0.00284945  0.05690645  0.65729617     0.21600
N1041       N  0.96367361  0.03837433  0.65260726    -0.32500
C1042       C  0.96266643  0.06288009  0.64390815    -0.10000
C1043       C  0.98671387  0.07504364  0.64643097    -0.28800
N1044       N  0.06157828  0.03474469  0.69057606    -0.45400
C1045       C  0.06142408  0.01101335  0.70139535    -0.04700
C1046       C  0.03868484  0.99778966  0.69491834    -0.22100
H1047       H  0.98698004  0.99557215  0.67517370     0.19700
H1048       H  0.03947757  0.07673054  0.66484462     0.18500
H1049       H  0.99135629  0.09489144  0.64214007     0.14800
H1050       H  0.03214799  0.97952925  0.70251020     0.14700
H1051       H  0.94836483  0.02521416  0.65362099     0.32800
H1052       H  0.07499179  0.04947174  0.69399527     0.35600
C1053       C  0.83016246  0.24424655  0.58627245     0.21200
C1054       C  0.83473859  0.27040887  0.58113323    -0.38700
C1055       C  0.81417785  0.28374535  0.56966549     0.20200
C1056       C  0.79080197  0.27181674  0.56411588     0.22800
C1057       C  0.78633286  0.24562429  0.56905993    -0.39200
C1058       C  0.80696109  0.23225853  0.58022064     0.21600
N1059       N  0.84718610  0.22709213  0.59537722    -0.32500
C1060       C  0.83490660  0.20395060  0.59490750    -0.10000
C1061       C  0.80970917  0.20636229  0.58553681    -0.28800
N1062       N  0.77584910  0.28726268  0.54995510    -0.45400
C1063       C  0.78990997  0.30890492  0.54556749    -0.04700
C1064       C  0.81377685  0.30771483  0.55814497    -0.22100
H1065       H  0.85341675  0.27933314  0.58453049     0.19700
H1066       H  0.76857520  0.23604535  0.56332007     0.18500
H1067       H  0.79559290  0.19120267  0.58245888     0.14800
H1068       H  0.82996360  0.32082464  0.55603548     0.14700
H1069       H  0.86633319  0.23078642  0.60081484     0.32800
H1070       H  0.75835784  0.28210114  0.54115866     0.35600
C1071       C  0.79161834  0.98091232  0.55654018     0.21200
C1072       C  0.78984759  0.00630922  0.56541817    -0.38700
C1073       C  0.81241259  0.02101232  0.56348929     0.20200
C1074       C  0.83543122  0.01119541  0.55401915     0.22800
C1075       C  0.83711128  0.98570644  0.54452683    -0.39200
C1076       C  0.81411230  0.97098723  0.54591984     0.21600
N1077       N  0.77178084  0.96461662  0.55330527    -0.32500
C1078       C  0.78096582  0.94441971  0.53947678    -0.10000
C1079       C  0.80758492  0.94736814  0.53497958    -0.28800
N1080       N  0.85439705  0.02910584  0.55573026    -0.45400
C1081       C  0.84301280  0.05039477  0.56610048    -0.04700
C1082       C  0.81679961  0.04603119  0.57078852    -0.22100
H1083       H  0.77188686  0.01428950  0.57268237     0.19700
H1084       H  0.85472031  0.97816834  0.53605486     0.18500
H1085       H  0.81957137  0.93577867  0.52234239     0.14800
H1086       H  0.80311998  0.05892742  0.57999004     0.14700
H1087       H  0.75232282  0.96862947  0.55722236     0.32800
H1088       H  0.87395069  0.02669392  0.55110675     0.35600
C1089       C  0.78524923  0.05318027  0.68862117     0.21200
C1090       C  0.77556289  0.03013650  0.69869229    -0.38700
C1091       C  0.74925274  0.03023763  0.70544809     0.20200
C1092       C  0.73363539  0.05167803  0.70273048     0.22800
C1093       C  0.74326413  0.07469565  0.69221596    -0.39200
C1094       C  0.76961726  0.07450579  0.68514701     0.21600
N1095       N  0.80967125  0.05797203  0.68091027    -0.32500
C1096       C  0.80957382  0.08239992  0.67194454    -0.10000
C1097       C  0.78492811  0.09334193  0.67427144    -0.28800
N1098       N  0.71027891  0.04770683  0.71376486    -0.45400
C1099       C  0.71128129  0.02367560  0.72384457    -0.04700
C1100       C  0.73508161  0.01207401  0.71833552    -0.22100
H1101       H  0.78780436  0.01353256  0.70174198     0.19700
H1102       H  0.73132077  0.09167726  0.69025520     0.18500
H1103       H  0.77892957  0.11234861  0.66831139     0.14800
H1104       H  0.74209468  0.99374733  0.72525494     0.14700
H1105       H  0.82518808  0.04507804  0.68078579     0.32800
H1106       H  0.69564663  0.06133289  0.71648897     0.35600
C1107       C  0.81916055  0.77535594  0.93263938     0.21200
C1108       C  0.80962535  0.75048694  0.92712168    -0.38700
C1109       C  0.80472069  0.73484370  0.94861267     0.20200
C1110       C  0.80932470  0.74340001  0.97350045     0.22800
C1111       C  0.81861568  0.76818126  0.97894869    -0.39200
C1112       C  0.82319280  0.78378788  0.95763945     0.21600
N1113       N  0.82528942  0.79406213  0.91587125    -0.32500
C1114       C  0.83314040  0.81445880  0.93046789    -0.10000
C1115       C  0.83189644  0.80876888  0.95658188    -0.28800
N1116       N  0.80017459  0.72656570  0.99064281    -0.45400
C1117       C  0.78894936  0.70730630  0.97689365    -0.04700
C1118       C  0.79182643  0.71150706  0.95049202    -0.22100
H1119       H  0.80548449  0.74413686  0.90765890     0.19700
H1120       H  0.82123440  0.77512215  0.99847766     0.18500
H1121       H  0.83754247  0.82096066  0.97262287     0.14800
H1122       H  0.78263407  0.70088764  0.93497524     0.14700
H1123       H  0.82474639  0.79283379  0.89579616     0.32800
H1124       H  0.79880440  0.72954283  0.01052232     0.35600
C1125       C  0.52225527  0.97707714  0.17005098     0.21200
C1126       C  0.51552034  0.99900882  0.18443624    -0.38700
C1127       C  0.48974877  0.00010466  0.19299562     0.20200
C1128       C  0.47195868  0.98076984  0.18786574     0.22800
C1129       C  0.47866725  0.95887724  0.17320793    -0.39200
C1130       C  0.50446697  0.95785198  0.16445106     0.21600
N1131       N  0.54595233  0.97072951  0.16132454    -0.32500
C1132       C  0.54332962  0.94732653  0.14989485    -0.10000
C1133       C  0.51767074  0.93871000  0.15133856    -0.28800
N1134       N  0.44995169  0.98464059  0.20137308    -0.45400
C1135       C  0.45392953  0.00634006  0.21558676    -0.04700
C1136       C  0.47834118  0.01682893  0.21016465    -0.22100
H1137       H  0.52964657  0.01358458  0.18964012     0.19700
H1138       H  0.46513971  0.94325285  0.16985363     0.18500
H1139       H  0.50994732  0.92048949  0.14456088     0.14800
H1140       H  0.48766283  0.03303580  0.21959202     0.14700
H1141       H  0.56298785  0.98143059  0.16349853     0.32800
H1142       H  0.43439334  0.97184258  0.20293384     0.35600
C1143       C  0.73788688  0.92564507  0.17736946     0.21200
C1144       C  0.76057432  0.91908173  0.19080378    -0.38700
C1145       C  0.77917017  0.93876677  0.19348116     0.20200
C1146       C  0.77542921  0.96303442  0.18332451     0.22800
C1147       C  0.75270141  0.96960146  0.17002262    -0.39200
C1148       C  0.73404889  0.95005338  0.16760869     0.21600
N1149       N  0.71693540  0.91073831  0.17311704    -0.32500
C1150       C  0.69949602  0.92586004  0.16085730    -0.10000
C1151       C  0.70948859  0.95054764  0.15709627    -0.28800
N1152       N  0.79380512  0.97936519  0.19178228    -0.45400
C1153       C  0.80917612  0.96581379  0.20796235    -0.04700
C1154       C  0.80088364  0.94018970  0.20906626    -0.22100
H1155       H  0.76301665  0.90040470  0.19958617     0.19700
H1156       H  0.74925880  0.98892798  0.16316131     0.18500
H1157       H  0.70018930  0.96655745  0.14761250     0.14800
H1158       H  0.80729306  0.92571965  0.22252936     0.14700
H1159       H  0.71458641  0.89148633  0.17832800     0.32800
H1160       H  0.79378539  0.99934414  0.18950217     0.35600
C1161       C  0.67806288  0.04845221  0.03129353     0.21200
C1162       C  0.66193831  0.03915916  0.05094202    -0.38700
C1163       C  0.65517933  0.01298336  0.04920241     0.20200
C1164       C  0.66379392  0.99715674  0.02942184     0.22800
C1165       C  0.67938240  0.00655509  0.00949642    -0.39200
C1166       C  0.68612398  0.03269968  0.01122003     0.21600
N1167       N  0.69138844  0.07082346  0.03135894    -0.32500
C1168       C  0.70840625  0.06903296  0.01152521    -0.10000
C1169       C  0.70495615  0.04586035  0.99808423    -0.28800
N1170       N  0.65804543  0.97234299  0.03419429    -0.45400
C1171       C  0.64574854  0.97239574  0.05723171    -0.04700
C1172       C  0.64323974  0.99741896  0.06694214    -0.22100
H1173       H  0.65674831  0.05088909  0.06745687     0.19700
H1174       H  0.68742950  0.99396387  0.99485843     0.18500
H1175       H  0.71710577  0.03815153  0.98289222     0.14800
H1176       H  0.63558184  0.00320465  0.08550256     0.14700
H1177       H  0.69125126  0.08485605  0.04586872     0.32800
H1178       H  0.66354708  0.95629903  0.02327462     0.35600
C1179       C  0.57712694  0.83257363  0.22761066     0.21200
C1180       C  0.58124922  0.82698739  0.25379284    -0.38700
C1181       C  0.55946201  0.81816343  0.26749270     0.20200
C1182       C  0.53544611  0.81553023  0.25590309     0.22800
C1183       C  0.53133588  0.82122929  0.22985448    -0.39200
C1184       C  0.55308342  0.82970979  0.21617502     0.21600
N1185       N  0.59479306  0.84016671  0.21014687    -0.32500
C1186       C  0.58187202  0.84212067  0.18745309    -0.10000
C1187       C  0.55578559  0.83575020  0.19050907    -0.28800
N1188       N  0.51884773  0.80347121  0.27160336    -0.45400
C1189       C  0.53229933  0.79756061  0.29321190    -0.04700
C1190       C  0.55763451  0.80705401  0.29163717    -0.22100
H1191       H  0.60026091  0.82824855  0.26251629     0.19700
H1192       H  0.51277833  0.81812446  0.22061025     0.18500
H1193       H  0.54075423  0.83584249  0.17597833     0.14800
H1194       H  0.57345497  0.80319095  0.30471850     0.14700
H1195       H  0.61436354  0.84413591  0.21353977     0.32800
H1196       H  0.50024661  0.79710441  0.26672150     0.35600
C1197       C  0.69752514  0.73582638  0.05492441     0.21200
C1198       C  0.69686427  0.75161788  0.07704454    -0.38700
C1199       C  0.68650877  0.77639747  0.07368696     0.20200
C1200       C  0.67784590  0.78488918  0.05002438     0.22800
C1201       C  0.67824117  0.76907416  0.02803582    -0.39200
C1202       C  0.68827960  0.74425253  0.03145381     0.21600
N1203       N  0.70985801  0.71313534  0.05211000    -0.32500
C1204       C  0.70879240  0.70723277  0.02663356    -0.10000
C1205       C  0.69490436  0.72598729  0.01334246    -0.28800
N1206       N  0.66931843  0.80927772  0.05169777    -0.45400
C1207       C  0.67203998  0.81632547  0.07673000    -0.04700
C1208       C  0.68278472  0.79632074  0.09106131    -0.22100
H1209       H  0.70455894  0.74535578  0.09533687     0.19700
H1210       H  0.67200222  0.77590340  0.00940255     0.18500
H1211       H  0.69339716  0.72795341  0.99266027     0.14800
H1212       H  0.68665051  0.79613985  0.11153690     0.14700
H1213       H  0.72121816  0.70404171  0.06597399     0.32800
H1214       H  0.66104479  0.82007303  0.03693302     0.35600
C1215       C  0.28358726  0.58108999  0.18930519     0.21200
C1216       C  0.26020020  0.58824842  0.20132651    -0.38700
C1217       C  0.24109111  0.56893982  0.20282899     0.20200
C1218       C  0.24504613  0.54448758  0.19289911     0.22800
C1219       C  0.26853631  0.53723725  0.18123535    -0.39200
C1220       C  0.28764437  0.55643820  0.17992041     0.21600
N1221       N  0.30454643  0.59596827  0.18510034    -0.32500
C1222       C  0.32215233  0.58064570  0.17306918    -0.10000
C1223       C  0.31234953  0.55575475  0.16972149    -0.28800
N1224       N  0.22545862  0.52881284  0.19947224    -0.45400
C1225       C  0.20906581  0.54290226  0.21439964    -0.04700
C1226       C  0.21801057  0.56828005  0.21647221    -0.22100
H1227       H  0.25737155  0.60724437  0.20954689     0.19700
H1228       H  0.27193041  0.51782207  0.17431635     0.18500
H1229       H  0.32155282  0.53970016  0.15998325     0.14800
H1230       H  0.21077770  0.58309249  0.22933846     0.14700
H1231       H  0.30648198  0.61552190  0.18949313     0.32800
H1232       H  0.22506434  0.50884312  0.19691974     0.35600
C1233       C  0.34428571  0.49820574  0.05803044     0.21200
C1234       C  0.33403669  0.47326762  0.06142563    -0.38700
C1235       C  0.31961471  0.46321184  0.04066738     0.20200
C1236       C  0.31607140  0.47698891  0.01826582     0.22800
C1237       C  0.32618490  0.50187363  0.01491973    -0.39200
C1238       C  0.34024432  0.51202375  0.03572313     0.21600
N1239       N  0.35688461  0.51276840  0.07552848    -0.32500
C1240       C  0.36045092  0.53617556  0.06451557    -0.10000
C1241       C  0.35045227  0.53638227  0.03957029    -0.28800
N1242       N  0.30007844  0.46437063  0.00223777    -0.45400
C1243       C  0.29268442  0.44250892  0.01447786    -0.04700
C1244       C  0.30489133  0.44088037  0.03846442    -0.22100
H1245       H  0.33625406  0.46291055  0.07929444     0.19700
H1246       H  0.32239120  0.51296292  0.99776641     0.18500
H1247       H  0.34979195  0.55245973  0.02644309     0.14800
H1248       H  0.30185517  0.42642207  0.05306580     0.14700
H1249       H  0.36160448  0.50751356  0.09432257     0.32800
H1250       H  0.29380456  0.47095463  0.98433485     0.35600
C1251       C  0.34195378  0.72536311  0.06355545     0.21200
C1252       C  0.34039890  0.74162520  0.04216768    -0.38700
C1253       C  0.32885137  0.76572038  0.04652803     0.20200
C1254       C  0.31923808  0.77307619  0.07032832     0.22800
C1255       C  0.32131436  0.75693056  0.09192965    -0.39200
C1256       C  0.33315578  0.73285800  0.08761804     0.21600
N1257       N  0.35091975  0.70106551  0.06400029    -0.32500
C1258       C  0.34825387  0.69298743  0.08862730    -0.10000
C1259       C  0.33737078  0.71237982  0.10400225    -0.28800
N1260       N  0.30487903  0.79467647  0.06822822    -0.45400
C1261       C  0.30506722  0.80094533  0.04287666    -0.04700
C1262       C  0.32051762  0.78362345  0.02901655    -0.22100
H1263       H  0.34654957  0.73545167  0.02318152     0.19700
H1264       H  0.31321079  0.76220811  0.11044313     0.18500
H1265       H  0.33309953  0.71157241  0.12438016     0.14800
H1266       H  0.32196492  0.78200150  0.00827147     0.14700
H1267       H  0.35890725  0.69078021  0.04858360     0.32800
H1268       H  0.29291813  0.80257248  0.08244772     0.35600
C1269       C  0.46929422  0.67433133  0.22271441     0.21200
C1270       C  0.49243958  0.67865846  0.23640502    -0.38700
C1271       C  0.48970204  0.68930676  0.26126074     0.20200
C1272       C  0.46577178  0.69534657  0.27165365     0.22800
C1273       C  0.44265111  0.69099396  0.25794962    -0.39200
C1274       C  0.44536456  0.68019737  0.23320267     0.21600
N1275       N  0.46662203  0.66479722  0.19863693    -0.32500
C1276       C  0.44074429  0.66440482  0.19381581    -0.10000
C1277       C  0.42692341  0.67390272  0.21496734    -0.28800
N1278       N  0.46855294  0.70853412  0.29393619    -0.45400
C1279       C  0.49443115  0.71131880  0.29776301    -0.04700
C1280       C  0.50815918  0.69913176  0.27787043    -0.22100
H1281       H  0.51125267  0.67483086  0.22800049     0.19700
H1282       H  0.42393197  0.69636831  0.26568099     0.18500
H1283       H  0.40611070  0.67565013  0.21686704     0.14800
H1284       H  0.52876877  0.70049837  0.27419296     0.14700
H1285       H  0.48144022  0.65844620  0.18645578     0.32800
H1286       H  0.45382439  0.71787689  0.30414171     0.35600
C1287       C  0.53982162  0.82374612  0.95872209     0.21200
C1288       C  0.56144037  0.83724433  0.96817158    -0.38700
C1289       C  0.55937657  0.84658872  0.99351309     0.20200
C1290       C  0.53751393  0.84279068  0.00848235     0.22800
C1291       C  0.51581519  0.82944056  0.99897738    -0.39200
C1292       C  0.51787170  0.82006430  0.97361147     0.21600
N1293       N  0.53853069  0.80968261  0.93687645    -0.32500
C1294       C  0.51586716  0.79650869  0.93808068    -0.10000
C1295       C  0.50226529  0.80293780  0.96049406    -0.28800
N1296       N  0.54142793  0.85137125  0.03274121    -0.45400
C1297       C  0.56598762  0.86069454  0.03313252    -0.04700
C1298       C  0.57764737  0.85819711  0.00896381    -0.22100
H1299       H  0.57913095  0.83909273  0.95712238     0.19700
H1300       H  0.49916026  0.82532787  0.01094808     0.18500
H1301       H  0.48476618  0.79393956  0.96764609     0.14800
H1302       H  0.59737899  0.86302399  0.00375238     0.14700
H1303       H  0.55341601  0.80692692  0.92350298     0.32800
H1304       H  0.52858452  0.85012013  0.04822177     0.35600
C1305       C  0.49434708  0.68320752  0.97416820     0.21200
C1306       C  0.49827399  0.67599816  0.99989673    -0.38700
C1307       C  0.47763175  0.66300577  0.01165921     0.20200
C1308       C  0.45481738  0.65759648  0.99870591     0.22800
C1309       C  0.45082584  0.66489534  0.97299409    -0.39200
C1310       C  0.47151433  0.67788000  0.96119168     0.21600
N1311       N  0.50947916  0.69880209  0.96016833    -0.32500
C1312       C  0.49618380  0.70390103  0.93823961    -0.10000
C1313       C  0.47256844  0.69072607  0.93796467    -0.28800
N1314       N  0.43761082  0.64651884  0.01457726    -0.45400
C1315       C  0.44943466  0.64494945  0.03786371    -0.04700
C1316       C  0.47448895  0.65502973  0.03679820    -0.22100
H1317       H  0.51568188  0.68119468  0.01035242     0.19700
H1318       H  0.43252624  0.66171841  0.96328003     0.18500
H1319       H  0.45690427  0.69301627  0.92432236     0.14800
H1320       H  0.48821297  0.65698525  0.05244625     0.14700
H1321       H  0.52663879  0.70759798  0.96633649     0.32800
H1322       H  0.41861316  0.64111272  0.01002673     0.35600
C1323       C  0.51228247  0.54948997  0.16696673     0.21200
C1324       C  0.53733850  0.55273589  0.17717690    -0.38700
C1325       C  0.54683458  0.53210683  0.19169171     0.20200
C1326       C  0.53244481  0.50992322  0.19536516     0.22800
C1327       C  0.50740057  0.50672721  0.18526116    -0.39200
C1328       C  0.49777922  0.52745836  0.17110351     0.21600
N1329       N  0.49818004  0.56704456  0.15438262    -0.32500
C1330       C  0.47438902  0.55637689  0.15085648    -0.10000
C1331       C  0.47339240  0.53158570  0.16095395    -0.28800
N1332       N  0.54447591  0.49423059  0.21180421    -0.45400
C1333       C  0.56646159  0.50658159  0.21932531    -0.04700
C1334       C  0.56890286  0.53014871  0.20673498    -0.22100
H1335       H  0.54812812  0.57048266  0.17496627     0.19700
H1336       H  0.49577931  0.48983491  0.18923299     0.18500
H1337       H  0.45682200  0.51879845  0.16174468     0.14800
H1338       H  0.58354923  0.54478516  0.20988640     0.14700
H1339       H  0.50398252  0.58572269  0.14968246     0.32800
H1340       H  0.53732484  0.47666675  0.21848599     0.35600
C1341       C  0.31549218  0.47738739  0.44889001     0.21200
C1342       C  0.29195385  0.49065659  0.44847407    -0.38700
C1343       C  0.29279515  0.51601826  0.45760569     0.20200
C1344       C  0.31533663  0.52736780  0.46668571     0.22800
C1345       C  0.33911284  0.51409798  0.46673361    -0.39200
C1346       C  0.33832236  0.48865482  0.45730526     0.21600
N1347       N  0.31948786  0.45304455  0.44134452    -0.32500
C1348       C  0.34516045  0.44868439  0.44436627    -0.10000
C1349       C  0.35768915  0.47046434  0.45432331    -0.28800
N1350       N  0.31006204  0.55024331  0.47786087    -0.45400
C1351       C  0.28398292  0.55318028  0.47617223    -0.04700
C1352       C  0.27273450  0.53243450  0.46312359    -0.22100
H1353       H  0.27407575  0.48157625  0.44229955     0.19700
H1354       H  0.35671997  0.52267495  0.47423076     0.18500
H1355       H  0.37817954  0.47289730  0.45809350     0.14800
H1356       H  0.25225002  0.52831831  0.46110665     0.14700
H1357       H  0.30571911  0.44052884  0.43337811     0.32800
H1358       H  0.32287009  0.56158218  0.48864156     0.35600
C1359       C  0.49238767  0.42627187  0.32807478     0.21200
C1360       C  0.50897877  0.42253505  0.30703318    -0.38700
C1361       C  0.53293595  0.43522887  0.30837422     0.20200
C1362       C  0.53977585  0.45103749  0.32881896     0.22800
C1363       C  0.52325001  0.45439885  0.35023319    -0.39200
C1364       C  0.49937545  0.44113740  0.34917121     0.21600
N1365       N  0.46846137  0.41653072  0.33101456    -0.32500
C1366       C  0.46011768  0.42457189  0.35445545    -0.10000
C1367       C  0.47892307  0.43996929  0.36648530    -0.28800
N1368       N  0.56161302  0.46429628  0.32325970    -0.45400
C1369       C  0.56858662  0.45693038  0.29907121    -0.04700
C1370       C  0.55141081  0.43828714  0.28961838    -0.22100
H1371       H  0.50327257  0.41123442  0.29037316     0.19700
H1372       H  0.52825719  0.46700128  0.36616053     0.18500
H1373       H  0.47787117  0.44885555  0.38536288     0.14800
H1374       H  0.55038145  0.43093961  0.27007974     0.14700
H1375       H  0.45873060  0.40428469  0.31820084     0.32800
H1376       H  0.56938483  0.47961562  0.33388914     0.35600
C1377       C  0.30820695  0.25961792  0.42026452     0.21200
C1378       C  0.30840061  0.23296938  0.42460326    -0.38700
C1379       C  0.28622945  0.22283404  0.43646138     0.20200
C1380       C  0.26540177  0.23817582  0.44333652     0.22800
C1381       C  0.26517488  0.26483884  0.43889016    -0.39200
C1382       C  0.28741947  0.27497038  0.42718502     0.21600
N1383       N  0.32791918  0.27407734  0.41163561    -0.32500
C1384       C  0.31978199  0.29884552  0.41320411    -0.10000
C1385       C  0.29451023  0.30020400  0.42269472    -0.28800
N1386       N  0.24895202  0.22506411  0.45837436    -0.45400
C1387       C  0.25959739  0.20143138  0.46177378    -0.04700
C1388       C  0.28251301  0.19909241  0.44772006    -0.22100
H1389       H  0.32528686  0.22127884  0.42058254     0.19700
H1390       H  0.24955612  0.27704221  0.44561518     0.18500
H1391       H  0.28329134  0.31734611  0.42676543     0.14800
H1392       H  0.29656658  0.18370586  0.44896522     0.14700
H1393       H  0.34621597  0.26753028  0.40595165     0.32800
H1394       H  0.23314825  0.23279273  0.46832578     0.35600
C1395       C  0.24466370  0.45682815  0.28900742     0.21200
C1396       C  0.26892438  0.44503035  0.28583334    -0.38700
C1397       C  0.28087811  0.43645821  0.30837279     0.20200
C1398       C  0.26929823  0.43909119  0.33225953     0.22800
C1399       C  0.24509680  0.45131635  0.33550135    -0.39200
C1400       C  0.23321388  0.46023817  0.31285665     0.21600
N1401       N  0.23056690  0.46808401  0.27065560    -0.32500
C1402       C  0.21016296  0.47957089  0.28261372    -0.10000
C1403       C  0.21088317  0.47473140  0.30908331    -0.28800
N1404       N  0.28455024  0.42899590  0.35057498    -0.45400
C1405       C  0.30611637  0.42022196  0.33833056    -0.04700
C1406       C  0.30459204  0.42468097  0.31195032    -0.22100
H1407       H  0.27806556  0.44314848  0.26715760     0.19700
H1408       H  0.23641969  0.45407259  0.35428842     0.18500
H1409       H  0.19814436  0.48250345  0.32373962     0.14800
H1410       H  0.31865904  0.41955031  0.29734022     0.14700
H1411       H  0.23543644  0.46905913  0.25119305     0.32800
H1412       H  0.28060660  0.42824044  0.37031333     0.35600
C1413       C  0.44080159  0.27207791  0.24572266     0.21200
C1414       C  0.43368415  0.26970512  0.27164020    -0.38700
C1415       C  0.42227972  0.29143606  0.28289839     0.20200
C1416       C  0.41792069  0.31380543  0.26926316     0.22800
C1417       C  0.42509359  0.31622987  0.24323887    -0.39200
C1418       C  0.43685755  0.29448734  0.23199665     0.21600
N1419       N  0.45548041  0.25557902  0.23225166    -0.32500
C1420       C  0.46162780  0.26754930  0.20996119    -0.10000
C1421       C  0.44986200  0.29173157  0.20879460    -0.28800
N1422       N  0.40870377  0.33232532  0.28497006    -0.45400
C1423       C  0.40758453  0.32174691  0.30878358    -0.04700
C1424       C  0.41576996  0.29620880  0.30821315    -0.22100
H1425       H  0.43814743  0.25266948  0.28266544     0.19700
H1426       H  0.42303522  0.33417863  0.23297825     0.18500
H1427       H  0.45311469  0.30648520  0.19453173     0.14800
H1428       H  0.41769623  0.28323264  0.32431113     0.14700
H1429       H  0.46300528  0.23820496  0.23894659     0.32800
H1430       H  0.40456440  0.35134693  0.28002584     0.35600
C1431       C  0.45304805  0.28610080  0.53243964     0.21200
C1432       C  0.44638501  0.28293723  0.50642687    -0.38700
C1433       C  0.44209621  0.30560208  0.49265653     0.20200
C1434       C  0.44402439  0.32973170  0.50391914     0.22800
C1435       C  0.45108118  0.33293534  0.53003232    -0.39200
C1436       C  0.45569583  0.31009234  0.54386626     0.21600
N1437       N  0.46061986  0.26754343  0.54853470    -0.32500
C1438       C  0.46920268  0.27942479  0.57030415    -0.10000
C1439       C  0.46586904  0.30611866  0.56833696    -0.28800
N1440       N  0.43821197  0.34813525  0.48663115    -0.45400
C1441       C  0.43261962  0.33552860  0.46424554    -0.04700
C1442       C  0.43508650  0.30897669  0.46732040    -0.22100
H1443       H  0.44516940  0.26411684  0.49740259     0.19700
H1444       H  0.45337921  0.35179221  0.53874921     0.18500
H1445       H  0.47283391  0.32073234  0.58159734     0.14800
H1446       H  0.43120226  0.29404831  0.45318014     0.14700
H1447       H  0.46223605  0.24798709  0.54393232     0.32800
H1448       H  0.43733696  0.36796141  0.49005358     0.35600
C1449       C  0.49382299  0.03241391  0.32554024     0.21200
C1450       C  0.52055781  0.02995622  0.32991994    -0.38700
C1451       C  0.53223463  0.04990979  0.34403009     0.20200
C1452       C  0.51821275  0.07053144  0.35362573     0.22800
C1453       C  0.49146623  0.07327938  0.34876866    -0.39200
C1454       C  0.47980477  0.05345961  0.33413438     0.21600
N1455       N  0.47939959  0.01774306  0.30977556    -0.32500
C1456       C  0.45618213  0.02973257  0.30720636    -0.10000
C1457       C  0.45549123  0.05193240  0.32265441    -0.28800
N1458       N  0.53408904  0.08739282  0.36559005    -0.45400
C1459       C  0.55838085  0.07771003  0.36301236    -0.04700
C1460       C  0.55803254  0.05439341  0.34958600    -0.22100
H1461       H  0.53170121  0.01423873  0.32179332     0.19700
H1462       H  0.48081983  0.09017957  0.35489805     0.18500
H1463       H  0.44061849  0.06659467  0.32288643     0.14800
H1464       H  0.57446860  0.04262518  0.34416309     0.14700
H1465       H  0.48598581  0.00184227  0.29922696     0.32800
H1466       H  0.52892446  0.10501264  0.37393096     0.35600
C1467       C  0.74739285  0.07431774  0.32911823     0.21200
C1468       C  0.77432199  0.07047860  0.32581921    -0.38700
C1469       C  0.78148978  0.04905592  0.31053662     0.20200
C1470       C  0.76307618  0.03268267  0.30010775     0.22800
C1471       C  0.73639588  0.03656382  0.30327454    -0.39200
C1472       C  0.72929007  0.05810279  0.31788447     0.21600
N1473       N  0.73535349  0.09326027  0.34234397    -0.32500
C1474       C  0.70948166  0.08917018  0.33908769    -0.10000
C1475       C  0.70503342  0.06740756  0.32390333    -0.28800
N1476       N  0.77422666  0.01443027  0.28564664    -0.45400
C1477       C  0.80012722  0.01927337  0.28572226    -0.04700
C1478       C  0.80551306  0.04061180  0.30160030    -0.22100
H1479       H  0.78854896  0.08348057  0.33404681     0.19700
H1480       H  0.72214743  0.02398911  0.29442608     0.18500
H1481       H  0.68652397  0.05913228  0.31851763     0.14800
H1482       H  0.82414852  0.04964438  0.30489296     0.14700
H1483       H  0.74416692  0.10796452  0.35304608     0.32800
H1484       H  0.76426644  0.99981374  0.27589505     0.35600
C1485       C  0.72716980  0.23910155  0.42050170     0.21200
C1486       C  0.75142614  0.24799430  0.42886576    -0.38700
C1487       C  0.75273865  0.27417108  0.43562132     0.20200
C1488       C  0.73149767  0.29035402  0.43425401     0.22800
C1489       C  0.70730814  0.28152096  0.42543741    -0.39200
C1490       C  0.70601665  0.25533459  0.41861077     0.21600
N1491       N  0.72025681  0.21454170  0.41570465    -0.32500
C1492       C  0.69451699  0.21515123  0.41064020    -0.10000
C1493       C  0.68501159  0.24029018  0.41198481    -0.28800
N1494       N  0.73641075  0.31283272  0.44641119    -0.45400
C1495       C  0.76069361  0.31072543  0.45614622    -0.04700
C1496       C  0.77172908  0.28717068  0.44894009    -0.22100
H1497       H  0.76762689  0.23509327  0.43162108     0.19700
H1498       H  0.69031705  0.29371136  0.42552063     0.18500
H1499       H  0.66513868  0.24651657  0.40970868     0.14800
H1500       H  0.78980399  0.27913252  0.45573024     0.14700
H1501       H  0.73212793  0.19830858  0.41657761     0.32800
H1502       H  0.72289761  0.32715122  0.45081112     0.35600
C1503       C  0.57278916  0.23121641  0.24424124     0.21200
C1504       C  0.58111208  0.23486894  0.26972888    -0.38700
C1505       C  0.59143221  0.21317135  0.28183563     0.20200
C1506       C  0.59368635  0.18964902  0.26936373     0.22800
C1507       C  0.58539931  0.18598175  0.24378593    -0.39200
C1508       C  0.57474338  0.20767600  0.23172015     0.21600
N1509       N  0.55853533  0.24762254  0.23037944    -0.32500
C1510       C  0.55076913  0.23449886  0.20906000    -0.10000
C1511       C  0.56101082  0.20961350  0.20891303    -0.28800
N1512       N  0.60225881  0.17160470  0.28572611    -0.45400
C1513       C  0.60510654  0.18364201  0.30884638    -0.04700
C1514       C  0.59866701  0.20964158  0.30712635    -0.22100
H1515       H  0.57826773  0.25290539  0.27990868     0.19700
H1516       H  0.58581199  0.16725845  0.23450442     0.18500
H1517       H  0.55618964  0.19407440  0.19575426     0.14800
H1518       H  0.59847839  0.22383030  0.32249197     0.14700
H1519       H  0.55222372  0.26581815  0.23636379     0.32800
H1520       H  0.60498854  0.15206352  0.28167436     0.35600
C1521       C  0.56517734  0.21635456  0.54096401     0.21200
C1522       C  0.57837954  0.22162691  0.51794589    -0.38700
C1523       C  0.57804832  0.20197873  0.49929993     0.20200
C1524       C  0.56576135  0.17866958  0.50340349     0.22800
C1525       C  0.55213237  0.17352997  0.52628240    -0.39200
C1526       C  0.55227224  0.19334256  0.54489187     0.21600
N1527       N  0.55987690  0.23317747  0.55995750    -0.32500
C1528       C  0.54293357  0.22130304  0.57593867    -0.10000
C1529       C  0.53804038  0.19617526  0.56731130    -0.28800
N1530       N  0.56907936  0.16287892  0.48302807    -0.45400
C1531       C  0.58335361  0.17631187  0.46571256    -0.04700
C1532       C  0.58909740  0.20091129  0.47510175    -0.22100
H1533       H  0.58766445  0.24000193  0.51454514     0.19700
H1534       H  0.54163851  0.15569851  0.52909839     0.18500
H1535       H  0.52319684  0.18320924  0.57427957     0.14800
H1536       H  0.60096989  0.21548714  0.46606093     0.14700
H1537       H  0.56465753  0.25273545  0.56013792     0.32800
H1538       H  0.56259444  0.14386847  0.48125696     0.35600
C1539       C  0.67257890  0.02398198  0.45997299     0.21200
C1540       C  0.66677500  0.00085895  0.47273473    -0.38700
C1541       C  0.68534559  0.98118292  0.47033820     0.20200
C1542       C  0.70774525  0.98434262  0.45605585     0.22800
C1543       C  0.71370392  0.00753041  0.44366928    -0.39200
C1544       C  0.69538768  0.02722343  0.44636550     0.21600
N1545       N  0.65790102  0.04533631  0.45863957    -0.32500
C1546       C  0.67168244  0.06235145  0.44436358    -0.10000
C1547       C  0.69526885  0.05178770  0.43657855    -0.28800
N1548       N  0.72361098  0.96419089  0.45911678    -0.45400
C1549       C  0.71180707  0.94817374  0.47599384    -0.04700
C1550       C  0.68761653  0.95800136  0.48313347    -0.22100
H1551       H  0.64942547  0.99859772  0.48422026     0.19700
H1552       H  0.73166369  0.01025970  0.43325080     0.18500
H1553       H  0.70959080  0.06031328  0.42398695     0.14800
H1554       H  0.67516692  0.95106707  0.49837053     0.14700
H1555       H  0.63931297  0.04787083  0.46619617     0.32800
H1556       H  0.74280939  0.96302715  0.45279694     0.35600
C1557       C  0.19478696  0.53083171  0.56171377     0.21200
C1558       C  0.17138361  0.51679618  0.56280847    -0.38700
C1559       C  0.17303458  0.49194460  0.57339976     0.20200
C1560       C  0.19630443  0.48187107  0.58184384     0.22800
C1561       C  0.21947249  0.49593326  0.58111369    -0.39200
C1562       C  0.21776280  0.52075559  0.57090870     0.21600
N1563       N  0.19930460  0.55303001  0.54910666    -0.32500
C1564       C  0.22533274  0.55694656  0.55014909    -0.10000
C1565       C  0.23726861  0.53740539  0.56411775    -0.28800
N1566       N  0.19320565  0.45764336  0.59009278    -0.45400
C1567       C  0.16768031  0.45211127  0.58738604    -0.04700
C1568       C  0.15435507  0.47309614  0.57705381    -0.22100
H1569       H  0.15343596  0.52429078  0.55514896     0.19700
H1570       H  0.23774733  0.48773989  0.58714125     0.18500
H1571       H  0.25787964  0.53387350  0.56571869     0.14800
H1572       H  0.13382156  0.47446774  0.57305449     0.14700
H1573       H  0.18604168  0.56309161  0.53782364     0.32800
H1574       H  0.20753772  0.44580982  0.59783187     0.35600
C1575       C  0.08274459  0.29171874  0.73958737     0.21200
C1576       C  0.07385077  0.26840228  0.74978355    -0.38700
C1577       C  0.06376165  0.26971482  0.77484733     0.20200
C1578       C  0.06238910  0.29250578  0.78878077     0.22800
C1579       C  0.07159234  0.31581641  0.77867288    -0.39200
C1580       C  0.08191844  0.31445196  0.75366053     0.21600
N1581       N  0.09157658  0.29590187  0.71557401    -0.32500
C1582       C  0.09669017  0.32146893  0.71448862    -0.10000
C1583       C  0.09106062  0.33361538  0.73790069    -0.28800
N1584       N  0.04857454  0.28922206  0.81055532    -0.45400
C1585       C  0.04085447  0.26423866  0.81024933    -0.04700
C1586       C  0.05045138  0.25144966  0.78852139    -0.22100
H1587       H  0.07368031  0.25073918  0.73859088     0.19700
H1588       H  0.06984667  0.33387394  0.78906194     0.18500
H1589       H  0.09264415  0.35393303  0.74246190     0.14800
H1590       H  0.04578510  0.23209084  0.78215263     0.14700
H1591       H  0.09377885  0.28230305  0.70082429     0.32800
H1592       H  0.04250825  0.30361957  0.82334228     0.35600
C1593       C  0.06372911  0.33919276  0.52033549     0.21200
C1594       C  0.05085748  0.34493893  0.49713983    -0.38700
C1595       C  0.04990023  0.32492813  0.47869322     0.20200
C1596       C  0.06122916  0.30124157  0.48307708     0.22800
C1597       C  0.07365792  0.29540501  0.50632972    -0.39200
C1598       C  0.07430214  0.31518510  0.52478929     0.21600
N1599       N  0.06737772  0.35475071  0.54090693    -0.32500
C1600       C  0.08005128  0.34038659  0.55866415    -0.10000
C1601       C  0.08452919  0.31554042  0.54930631    -0.28800
N1602       N  0.05531194  0.28458764  0.46413727    -0.45400
C1603       C  0.03948833  0.29720465  0.44767931    -0.04700
C1604       C  0.03593883  0.32266747  0.45595520    -0.22100
H1605       H  0.04159832  0.36333503  0.49401648     0.19700
H1606       H  0.08156035  0.27650527  0.51007514     0.18500
H1607       H  0.09477463  0.30011474  0.55879891     0.14800
H1608       H  0.02230079  0.33647404  0.44835420     0.14700
H1609       H  0.06186947  0.37403094  0.54265888     0.32800
H1610       H  0.05917753  0.26483027  0.46406159     0.35600
C1611       C  0.28527593  0.43503307  0.72444041     0.21200
C1612       C  0.27601995  0.42199577  0.70254478    -0.38700
C1613       C  0.24974393  0.41495693  0.70303758     0.20200
C1614       C  0.23370417  0.42042948  0.72371814     0.22800
C1615       C  0.24303156  0.43314185  0.74580008    -0.39200
C1616       C  0.26935962  0.44020573  0.74530797     0.21600
N1617       N  0.30793832  0.44780458  0.72662711    -0.32500
C1618       C  0.30626422  0.46174889  0.74871252    -0.10000
C1619       C  0.28276403  0.45676124  0.76124117    -0.28800
N1620       N  0.20891041  0.41417513  0.71822443    -0.45400
C1621       C  0.20927200  0.40465876  0.69384355    -0.04700
C1622       C  0.23443310  0.40466356  0.68391697    -0.22100
H1623       H  0.28796258  0.41904638  0.68564811     0.19700
H1624       H  0.23033914  0.43867786  0.76147654     0.18500
H1625       H  0.27504547  0.46670477  0.77794467     0.14800
H1626       H  0.24051600  0.39905164  0.66473776     0.14700
H1627       H  0.32210973  0.44958214  0.71237988     0.32800
H1628       H  0.19269777  0.41701699  0.72995170     0.35600
C1629       C  0.21973282  0.22094721  0.58209630     0.21200
C1630       C  0.19771717  0.23016662  0.59497827    -0.38700
C1631       C  0.19787625  0.25647821  0.60117937     0.20200
C1632       C  0.21838222  0.27256205  0.59509390     0.22800
C1633       C  0.24063748  0.26327572  0.58266832    -0.39200
C1634       C  0.24047365  0.23691824  0.57641472     0.21600
N1635       N  0.22179039  0.19835849  0.56941087    -0.32500
C1636       C  0.24355954  0.20019816  0.55494903    -0.10000
C1637       C  0.25621160  0.22361101  0.55969136    -0.28800
N1638       N  0.21240430  0.29730627  0.60022060    -0.45400
C1639       C  0.18791056  0.29682860  0.60964155    -0.04700
C1640       C  0.17836795  0.27171085  0.61074644    -0.22100
H1641       H  0.18085168  0.21817199  0.59817491     0.19700
H1642       H  0.25605576  0.27599886  0.57652024     0.18500
H1643       H  0.27252938  0.23145863  0.54921722     0.14800
H1644       H  0.15916608  0.26556980  0.61648827     0.14700
H1645       H  0.20739423  0.18427283  0.56776433     0.32800
H1646       H  0.22384860  0.31350503  0.59665761     0.35600
C1647       C  0.97800704  0.43701408  0.71546982     0.21200
C1648       C  0.00241507  0.42622153  0.72029559    -0.38700
C1649       C  0.02024808  0.42736191  0.70001365     0.20200
C1650       C  0.01414990  0.43801335  0.67645862     0.22800
C1651       C  0.98978367  0.44917410  0.67171731    -0.39200
C1652       C  0.97197808  0.44839748  0.69223807     0.21600
N1653       N  0.95943616  0.44168845  0.73291780    -0.32500
C1654       C  0.94166871  0.45690989  0.72130015    -0.10000
C1655       C  0.94860178  0.46104954  0.69562282    -0.28800
N1656       N  0.03442774  0.43619045  0.66021347    -0.45400
C1657       C  0.05363528  0.42461534  0.67371551    -0.04700
C1658       C  0.04552087  0.41899079  0.69866929    -0.22100
H1659       H  0.00746668  0.41834737  0.73886624     0.19700
H1660       H  0.98535967  0.45858770  0.65372907     0.18500
H1661       H  0.93995106  0.47468789  0.68253318     0.14800
H1662       H  0.05625529  0.40896717  0.71342261     0.14700
H1663       H  0.96063188  0.43785415  0.75261741     0.32800
H1664       H  0.03500009  0.44195508  0.64100752     0.35600
C1665       C  0.20290945  0.02815621  0.44730224     0.21200
C1666       C  0.20860860  0.00398364  0.43664977    -0.38700
C1667       C  0.18931716  0.98524701  0.43907898     0.20200
C1668       C  0.16566099  0.99025270  0.45055799     0.22800
C1669       C  0.16008372  0.01438346  0.46178578    -0.39200
C1670       C  0.17982828  0.03307719  0.45996574     0.21600
N1671       N  0.21990295  0.04728930  0.45127986    -0.32500
C1672       C  0.20844912  0.06410803  0.46774643    -0.10000
C1673       C  0.18302536  0.05623027  0.47298278    -0.28800
N1674       N  0.15028308  0.96927053  0.44928450    -0.45400
C1675       C  0.16462496  0.95079620  0.43735145    -0.04700
C1676       C  0.18913073  0.96001884  0.43100358    -0.22100
H1677       H  0.22723471  0.99975375  0.42802353     0.19700
H1678       H  0.14220384  0.01797568  0.47209244     0.18500
H1679       H  0.17038262  0.06386496  0.48780224     0.14800
H1680       H  0.20415731  0.95009651  0.42031446     0.14700
H1681       H  0.23962467  0.04667370  0.44671997     0.32800
H1682       H  0.13105560  0.96781913  0.45542922     0.35600
C1683       C  0.07223962  0.80879594  0.48848895     0.21200
C1684       C  0.06751232  0.78584625  0.50176406    -0.38700
C1685       C  0.05894195  0.78865592  0.52726253     0.20200
C1686       C  0.05531816  0.81249089  0.53879898     0.22800
C1687       C  0.06030214  0.83549745  0.52553668    -0.39200
C1688       C  0.06886682  0.83268510  0.49996422     0.21600
N1689       N  0.07967003  0.81125267  0.46380752    -0.32500
C1690       C  0.08114565  0.83692647  0.45944532    -0.10000
C1691       C  0.07460732  0.85091785  0.48160369    -0.28800
N1692       N  0.04352907  0.80993688  0.56181285    -0.45400
C1693       C  0.03922987  0.78433971  0.56472219    -0.04700
C1694       C  0.04911259  0.77051401  0.54374357    -0.22100
H1695       H  0.06932520  0.76716430  0.49256647     0.19700
H1696       H  0.05678950  0.85420887  0.53414529     0.18500
H1697       H  0.07443042  0.87163474  0.48404157     0.14800
H1698       H  0.04647677  0.75020153  0.53964783     0.14700
H1699       H  0.08392540  0.79636459  0.45086513     0.32800
H1700       H  0.03618984  0.82478817  0.57333954     0.35600
C1701       C  0.07160667  0.76654283  0.24211462     0.21200
C1702       C  0.07857241  0.76468394  0.26820578    -0.38700
C1703       C  0.08909697  0.78700698  0.27944175     0.20200
C1704       C  0.09274004  0.80935653  0.26555909     0.22800
C1705       C  0.08566142  0.81125914  0.23946817    -0.39200
C1706       C  0.07482326  0.78898784  0.22828255     0.21600
N1707       N  0.05818454  0.74916167  0.22829466    -0.32500
C1708       C  0.05204396  0.76061835  0.20566351    -0.10000
C1709       C  0.06265814  0.78538579  0.20471877    -0.28800
N1710       N  0.10184205  0.82824351  0.28091137    -0.45400
C1711       C  0.10373286  0.81804297  0.30483928    -0.04700
C1712       C  0.09596240  0.79227406  0.30469279    -0.22100
H1713       H  0.07489775  0.74746748  0.27926435     0.19700
H1714       H  0.08737842  0.82912834  0.22899895     0.18500
H1715       H  0.05934184  0.79980255  0.19014894     0.14800
H1716       H  0.09495023  0.77934286  0.32091250     0.14700
H1717       H  0.05176468  0.73125406  0.23481996     0.32800
H1718       H  0.10574941  0.84722167  0.27558279     0.35600
C1719       C  0.19244193  0.75722463  0.42931523     0.21200
C1720       C  0.18873119  0.73223658  0.43894656    -0.38700
C1721       C  0.21114766  0.71960473  0.44745909     0.20200
C1722       C  0.23535290  0.73104499  0.44612155     0.22800
C1723       C  0.23901098  0.75609094  0.43672172    -0.39200
C1724       C  0.21659259  0.76882392  0.42856712     0.21600
N1725       N  0.17413165  0.77362956  0.42129035    -0.32500
C1726       C  0.18657877  0.79596894  0.41575157    -0.10000
C1727       C  0.21314858  0.79377286  0.42010607    -0.28800
N1728       N  0.25303083  0.71657162  0.45808607    -0.45400
C1729       C  0.24008523  0.69607494  0.46791017    -0.04700
C1730       C  0.21391627  0.69695938  0.46112130    -0.22100
H1731       H  0.16965275  0.72371880  0.44070264     0.19700
H1732       H  0.25780165  0.76540268  0.43686664     0.18500
H1733       H  0.22785747  0.80843866  0.41762476     0.14800
H1734       H  0.19854916  0.68450896  0.46789708     0.14700
H1735       H  0.15421207  0.77008101  0.42032251     0.32800
H1736       H  0.27238615  0.72159035  0.46134225     0.35600
C1737       C  0.23468019  0.94625120  0.69272957     0.21200
C1738       C  0.24843981  0.92320917  0.68842143    -0.38700
C1739       C  0.27443731  0.92599737  0.68060081     0.20200
C1740       C  0.28585698  0.94989447  0.67742856     0.22800
C1741       C  0.27212427  0.97283402  0.68151870    -0.39200
C1742       C  0.24617364  0.97004934  0.68914168     0.21600
N1743       N  0.21106947  0.94896898  0.70364765    -0.32500
C1744       C  0.20763146  0.97467085  0.70730625    -0.10000
C1745       C  0.22900107  0.98830864  0.69790181    -0.28800
N1746       N  0.31080896  0.94749063  0.67031971    -0.45400
C1747       C  0.31544007  0.92183730  0.66873010    -0.04700
C1748       C  0.29317959  0.90779181  0.67505837    -0.22100
H1749       H  0.23980526  0.90450486  0.69170118     0.19700
H1750       H  0.28123456  0.99153306  0.67971523     0.18500
H1751       H  0.23293674  0.00866099  0.70042957     0.14800
H1752       H  0.29083390  0.88707335  0.67492893     0.14700
H1753       H  0.19945909  0.93421130  0.71093268     0.32800
H1754       H  0.32370479  0.96242298  0.66612239     0.35600
C1755       C  0.28622730  0.01768559  0.54831688     0.21200
C1756       C  0.28744026  0.99115169  0.55294231    -0.38700
C1757       C  0.31208447  0.98131739  0.55816601     0.20200
C1758       C  0.33386580  0.99684511  0.55942862     0.22800
C1759       C  0.33270267  0.02350355  0.55443783    -0.39200
C1760       C  0.30796311  0.03330678  0.54856305     0.21600
N1761       N  0.26532687  0.03089092  0.54088152    -0.32500
C1762       C  0.27356873  0.05506134  0.53527204    -0.10000
C1763       C  0.30012578  0.05749688  0.54038137    -0.28800
N1764       N  0.35474859  0.98282322  0.56603976    -0.45400
C1765       C  0.34619115  0.95817597  0.56849093    -0.04700
C1766       C  0.31970185  0.95651210  0.56353853    -0.22100
H1767       H  0.27043033  0.97893910  0.55201753     0.19700
H1768       H  0.34981904  0.03558653  0.55467498     0.18500
H1769       H  0.31241774  0.07391515  0.53643832     0.14800
H1770       H  0.30739899  0.93968877  0.56515367     0.14700
H1771       H  0.24672663  0.02326274  0.53843612     0.32800
H1772       H  0.37352665  0.98966978  0.56929883     0.35600
C1773       C  0.47293738  0.84372178  0.50923680     0.21200
C1774       C  0.49656807  0.83584160  0.49834951    -0.38700
C1775       C  0.49536105  0.82661817  0.47284948     0.20200
C1776       C  0.47237097  0.82507642  0.45919650     0.22800
C1777       C  0.44878799  0.83330366  0.46999419    -0.39200
C1778       C  0.45003193  0.84277928  0.49540080     0.21600
N1779       N  0.46855085  0.85132651  0.53373808    -0.32500
C1780       C  0.44266314  0.85553313  0.53542174    -0.10000
C1781       C  0.43055289  0.85056373  0.51183507    -0.28800
N1782       N  0.47569674  0.81173177  0.43704768    -0.45400
C1783       C  0.50090151  0.80433724  0.43673796    -0.04700
C1784       C  0.51382747  0.81396279  0.45849460    -0.22100
H1785       H  0.51437642  0.83563629  0.50935810     0.19700
H1786       H  0.43058373  0.83130490  0.45981861     0.18500
H1787       H  0.41004209  0.85153443  0.50758648     0.14800
H1788       H  0.53333925  0.80941862  0.46461283     0.14700
H1789       H  0.48222708  0.85316447  0.54847128     0.32800
H1790       H  0.46111110  0.80545490  0.42454457     0.35600
C1791       C  0.43502283  0.82029981  0.73084122     0.21200
C1792       C  0.43058846  0.81095910  0.75583622    -0.38700
C1793       C  0.45281928  0.80657726  0.77082351     0.20200
C1794       C  0.47746504  0.81162138  0.76160113     0.22800
C1795       C  0.48187292  0.82089619  0.73664944    -0.39200
C1796       C  0.45973967  0.82480099  0.72157778     0.21600
N1797       N  0.41725873  0.82536329  0.71262798    -0.32500
C1798       C  0.43076646  0.83292297  0.69153902    -0.10000
C1799       C  0.45736972  0.83271203  0.69638040    -0.28800
N1800       N  0.49541199  0.80259521  0.77781512    -0.45400
C1801       C  0.48239468  0.79086667  0.79720045    -0.04700
C1802       C  0.45566674  0.79356081  0.79386051    -0.22100
H1803       H  0.41132536  0.80634269  0.76266933     0.19700
H1804       H  0.50122833  0.82373215  0.72912127     0.18500
H1805       H  0.47282038  0.83839118  0.68349717     0.14800
H1806       H  0.44051117  0.78411704  0.80470407     0.14700
H1807       H  0.39715320  0.82409730  0.71453753     0.32800
H1808       H  0.51533305  0.80173273  0.77430712     0.35600
C1809       C  0.33370248  0.77024735  0.56502678     0.21200
C1810       C  0.33533942  0.75200309  0.54514367    -0.38700
C1811       C  0.32131233  0.72922187  0.54881352     0.20200
C1812       C  0.30614341  0.72503355  0.57034913     0.22800
C1813       C  0.30488547  0.74321981  0.59060358    -0.39200
C1814       C  0.31953660  0.76588832  0.58720289     0.21600
N1815       N  0.34487331  0.79359176  0.56566916    -0.32500
C1816       C  0.33843011  0.80416594  0.58867693    -0.10000
C1817       C  0.32268314  0.78743021  0.60279430    -0.28800
N1818       N  0.29121734  0.70389627  0.56693349    -0.45400
C1819       C  0.29695139  0.69470234  0.54304719    -0.04700
C1820       C  0.31614629  0.70974712  0.53159521    -0.22100
H1821       H  0.34604567  0.75567346  0.52761815     0.19700
H1822       H  0.29276953  0.74031857  0.60734945     0.18500
H1823       H  0.31472362  0.79057513  0.62183414     0.14800
H1824       H  0.32244725  0.70885483  0.51172107     0.14700
H1825       H  0.35689369  0.80155856  0.55159733     0.32800
H1826       H  0.27589726  0.69803274  0.57867857     0.35600
C1827       C  0.06162630  0.21410982  0.27962587     0.21200
C1828       C  0.08519368  0.21004687  0.26651049    -0.38700
C1829       C  0.08311878  0.19888122  0.24180144     0.20200
C1830       C  0.05937173  0.19269766  0.23099542     0.22800
C1831       C  0.03600341  0.19653511  0.24409079    -0.39200
C1832       C  0.03809118  0.20726424  0.26876930     0.21600
N1833       N  0.05787267  0.22706131  0.30191678    -0.32500
C1834       C  0.03177498  0.22854577  0.30502180    -0.10000
C1835       C  0.01895750  0.21597234  0.28491088    -0.28800
N1836       N  0.06232832  0.18240104  0.20745201    -0.45400
C1837       C  0.08818637  0.18144141  0.20318087    -0.04700
C1838       C  0.10188803  0.19169182  0.22414023    -0.22100
H1839       H  0.10368241  0.21558559  0.27470996     0.19700
H1840       H  0.01744527  0.19199516  0.23544396     0.18500
H1841       H  0.99834337  0.21605801  0.28101380     0.14800
H1842       H  0.12269995  0.19286527  0.22649840     0.14700
H1843       H  0.07197616  0.23663718  0.31280230     0.32800
H1844       H  0.04762291  0.17535837  0.19548029     0.35600
C1845       C  0.05539748  0.15488794  0.01276035     0.21200
C1846       C  0.05677096  0.15971227  0.98611233    -0.38700
C1847       C  0.03625108  0.17408001  0.97564227     0.20200
C1848       C  0.01587857  0.18270124  0.99069215     0.22800
C1849       C  0.01450688  0.17788055  0.01726626    -0.39200
C1850       C  0.03507231  0.16375393  0.02772908     0.21600
N1851       N  0.07371540  0.14412808  0.02766519    -0.32500
C1852       C  0.06522281  0.14642768  0.05235437    -0.10000
C1853       C  0.04100267  0.15837357  0.05310332    -0.28800
N1854       N  0.00080372  0.19882321  0.97730767    -0.45400
C1855       C  0.01170967  0.20117555  0.95362325    -0.04700
C1856       C  0.03367492  0.18552575  0.95168805    -0.22100
H1857       H  0.07335750  0.15399246  0.97468421     0.19700
H1858       H  0.99928705  0.18588847  0.02920674     0.18500
H1859       H  0.02992542  0.16371563  0.07000664     0.14800
H1860       H  0.04763560  0.18513768  0.93613767     0.14700
H1861       H  0.09153710  0.13686134  0.02151664     0.32800
H1862       H  0.98534594  0.20953196  0.98471051     0.35600
C1863       C  0.24229872  0.92398400  0.30804659     0.21200
C1864       C  0.25677942  0.92886352  0.28565346    -0.38700
C1865       C  0.28058735  0.94172972  0.28930253     0.20200
C1866       C  0.28929890  0.94941420  0.31335693     0.22800
C1867       C  0.27496184  0.94425398  0.33575685    -0.39200
C1868       C  0.25133081  0.93115244  0.33214037     0.21600
N1869       N  0.21861031  0.91294309  0.30976882    -0.32500
C1870       C  0.21276295  0.91275881  0.33524734    -0.10000
C1871       C  0.23276291  0.92387255  0.34970274    -0.28800
N1872       N  0.31044438  0.96463227  0.31129897    -0.45400
C1873       C  0.31516531  0.96696525  0.28572221    -0.04700
C1874       C  0.29717041  0.95243091  0.27153609    -0.22100
H1875       H  0.24958679  0.92392667  0.26667423     0.19700
H1876       H  0.28128847  0.95077261  0.35457419     0.18500
H1877       H  0.23348521  0.92643872  0.37039210     0.14800
H1878       H  0.29453582  0.95252114  0.25085910     0.14700
H1879       H  0.20738012  0.90559376  0.29467668     0.32800
H1880       H  0.31920235  0.97517439  0.32614514     0.35600
C1881       C  0.23369238  0.06416951  0.19341691     0.21200
C1882       C  0.25127754  0.04364828  0.19222468    -0.38700
C1883       C  0.27438466  0.04698869  0.20606651     0.20200
C1884       C  0.27956538  0.06889410  0.22048932     0.22800
C1885       C  0.26202694  0.08968240  0.22140494    -0.39200
C1886       C  0.23900104  0.08653793  0.20707407     0.21600
N1887       N  0.21042936  0.06555025  0.18185904    -0.32500
C1888       C  0.20088632  0.08921254  0.18758119    -0.10000
C1889       C  0.21819587  0.10292191  0.20330143    -0.28800
N1890       N  0.30129255  0.06568717  0.23462131    -0.45400
C1891       C  0.30990451  0.04154282  0.22912065    -0.04700
C1892       C  0.29374353  0.02960709  0.21105710    -0.22100
H1893       H  0.24700130  0.02604667  0.18175719     0.19700
H1894       H  0.26577833  0.10680318  0.23282055     0.18500
H1895       H  0.21606740  0.12239500  0.21054330     0.14800
H1896       H  0.29431126  0.00965008  0.20490480     0.14700
H1897       H  0.20203340  0.05163330  0.16984326     0.32800
H1898       H  0.30823640  0.07801244  0.24902001     0.35600
C1899       C  0.16949105  0.01260273  0.05387692     0.21200
C1900       C  0.17940222  0.00059441  0.03165078    -0.38700
C1901       C  0.18794188  0.97504972  0.03459443     0.20200
C1902       C  0.18693104  0.96239389  0.05792996     0.22800
C1903       C  0.17672932  0.97432377  0.08008819    -0.39200
C1904       C  0.16799065  0.99975931  0.07708343     0.21600
N1905       N  0.16205999  0.03738624  0.05666056    -0.32500
C1906       C  0.15559948  0.04022642  0.08183687    -0.10000
C1907       C  0.15888930  0.01711410  0.09505992    -0.28800
N1908       N  0.20021057  0.94004228  0.05671514    -0.45400
C1909       C  0.21011157  0.93851248  0.03253911    -0.04700
C1910       C  0.20225397  0.95981379  0.01811608    -0.22100
H1911       H  0.18160678  0.01083173  0.01370253     0.19700
H1912       H  0.17680565  0.96496240  0.09863898     0.18500
H1913       H  0.15594298  0.01374551  0.11539632     0.14800
H1914       H  0.20919270  0.96519264  0.99922785     0.14700
H1915       H  0.16181824  0.05152994  0.04248659     0.32800
H1916       H  0.20495639  0.92827041  0.07223171     0.35600
C1917       C  0.20086616  0.27703798  0.06808248     0.21200
C1918       C  0.20133740  0.26216456  0.09071756    -0.38700
C1919       C  0.18927927  0.23779974  0.08909145     0.20200
C1920       C  0.17801955  0.22894350  0.06653271     0.22800
C1921       C  0.17710301  0.24390630  0.04423197    -0.39200
C1922       C  0.18875854  0.26824733  0.04594304     0.21600
N1923       N  0.21446192  0.29870408  0.06314904    -0.32500
C1924       C  0.21103612  0.30362886  0.03769592    -0.10000
C1925       C  0.19461806  0.28524142  0.02663781    -0.28800
N1926       N  0.16907335  0.20481740  0.06926773    -0.45400
C1927       C  0.17416958  0.19811250  0.09389589    -0.04700
C1928       C  0.18668342  0.21828502  0.10699791    -0.22100
H1929       H  0.21126576  0.26861689  0.10795321     0.19700
H1930       H  0.16889009  0.23664028  0.02642840     0.18500
H1931       H  0.19088147  0.28240941  0.00630199     0.14800
H1932       H  0.19283375  0.21868157  0.12691660     0.14700
H1933       H  0.22782015  0.30761496  0.07543337     0.32800
H1934       H  0.15938621  0.19381527  0.05536820     0.35600
C1935       C  0.97478621  0.95401347  0.32681684     0.21200
C1936       C  0.99459177  0.95963078  0.34472300    -0.38700
C1937       C  0.01631456  0.94323637  0.34405624     0.20200
C1938       C  0.01834285  0.92323485  0.32644056     0.22800
C1939       C  0.99842853  0.91734654  0.30896159    -0.39200
C1940       C  0.97654792  0.93333049  0.31000611     0.21600
N1941       N  0.95424336  0.96882104  0.32076266    -0.32500
C1942       C  0.94278638  0.95754963  0.29996084    -0.10000
C1943       C  0.95602738  0.93505534  0.29316544    -0.28800
N1944       N  0.04131317  0.91128837  0.32867637    -0.45400
C1945       C  0.05394407  0.92328882  0.34824245    -0.04700
C1946       C  0.03888935  0.94324261  0.35851359    -0.22100
H1947       H  0.99357003  0.97607378  0.35760246     0.19700
H1948       H  0.00026811  0.90201387  0.29485658     0.18500
H1949       H  0.95349667  0.92387188  0.27567158     0.14800
H1950       H  0.04375305  0.95589813  0.37444481     0.14700
H1951       H  0.95030839  0.98716672  0.32814506     0.32800
H1952       H  0.04767694  0.89529561  0.31813608     0.35600
C1953       C  0.98746171  0.01410293  0.20160549     0.21200
C1954       C  0.01380397  0.01323461  0.19484789    -0.38700
C1955       C  0.02402005  0.03579690  0.18419917     0.20200
C1956       C  0.00900629  0.05746270  0.18029322     0.22800
C1957       C  0.98262739  0.05834952  0.18708709    -0.39200
C1958       C  0.97244169  0.03581835  0.19799459     0.21600
N1959       N  0.97422306  0.99625643  0.21472411    -0.32500
C1960       C  0.95073298  0.00672688  0.22017905    -0.10000
C1961       C  0.94867777  0.03124800  0.20949109    -0.28800
N1962       N  0.02346767  0.07662461  0.17059767    -0.45400
C1963       C  0.04790697  0.06719542  0.16848685    -0.04700
C1964       C  0.04903243  0.04175346  0.17682725    -0.22100
H1965       H  0.02571295  0.99653042  0.19855152     0.19700
H1966       H  0.97114805  0.07561801  0.18490975     0.18500
H1967       H  0.93303848  0.04487312  0.21210587     0.14800
H1968       H  0.06584748  0.02935052  0.17747199     0.14700
H1969       H  0.98148991  0.97863249  0.22104995     0.32800
H1970       H  0.01715445  0.09514066  0.16601565     0.35600
C1971       C  0.53244719  0.98379726  0.68951743     0.21200
C1972       C  0.50703537  0.98693198  0.68049250    -0.38700
C1973       C  0.49600453  0.96546705  0.66824582     0.20200
C1974       C  0.50932056  0.94256507  0.66510672     0.22800
C1975       C  0.53472428  0.93928882  0.67444843    -0.39200
C1976       C  0.54580135  0.96085543  0.68680966     0.21600
N1977       N  0.54569446  0.00034035  0.70444465    -0.32500
C1978       C  0.56749840  0.98791323  0.71194106    -0.10000
C1979       C  0.56850017  0.96329135  0.70091233    -0.28800
N1980       N  0.49403052  0.92475142  0.65383602    -0.45400
C1981       C  0.47077497  0.93636944  0.65002685    -0.04700
C1982       C  0.47128475  0.96178124  0.65880280    -0.22100
H1983       H  0.49625819  0.00452540  0.68370314     0.19700
H1984       H  0.54472135  0.92102791  0.67306562     0.18500
H1985       H  0.58223312  0.94819228  0.70519917     0.14800
H1986       H  0.45551938  0.97549644  0.65884438     0.14700
H1987       H  0.53905830  0.01813527  0.71118704     0.32800
H1988       H  0.49883685  0.90563548  0.64977452     0.35600
C1989       C  0.34589545  0.99822241  0.95690584     0.21200
C1990       C  0.33950561  0.97187939  0.95599355    -0.38700
C1991       C  0.32689603  0.96210496  0.97783995     0.20200
C1992       C  0.32131808  0.97747450  0.99899796     0.22800
C1993       C  0.32785145  0.00372167  0.99996618    -0.39200
C1994       C  0.34017757  0.01351518  0.97807465     0.21600
N1995       N  0.35517637  0.01266528  0.93758428    -0.32500
C1996       C  0.35496987  0.03735760  0.94636283    -0.10000
C1997       C  0.34600734  0.03860715  0.97166406    -0.28800
N1998       N  0.30589283  0.96491224  0.01549684    -0.45400
C1999       C  0.30109006  0.94148505  0.00473389    -0.04700
C2000       C  0.31437445  0.93880561  0.98143853    -0.22100
H2001       H  0.34263328  0.96025924  0.93889617     0.19700
H2002       H  0.32218641  0.01600225  0.01591767     0.18500
H2003       H  0.34284183  0.05570002  0.98328043     0.14800
H2004       H  0.31245287  0.92328640  0.96754575     0.14700
H2005       H  0.35999180  0.00628855  0.91907751     0.32800
H2006       H  0.29726106  0.97271472  0.03198079     0.35600
C2007       C  0.30731815  0.22756607  0.92630672     0.21200
C2008       C  0.29836534  0.25298932  0.92280040    -0.38700
C2009       C  0.29464639  0.26765475  0.94550513     0.20200
C2010       C  0.29987036  0.25765915  0.96957006     0.22800
C2011       C  0.30841064  0.23237774  0.97303107    -0.39200
C2012       C  0.31166750  0.21776128  0.95060283     0.21600
N2013       N  0.31313361  0.20974236  0.90814660    -0.32500
C2014       C  0.32089032  0.18850481  0.92123843    -0.10000
C2015       C  0.31994808  0.19283331  0.94770166    -0.28800
N2016       N  0.29294877  0.27419922  0.98819025    -0.45400
C2017       C  0.28247526  0.29487234  0.97634906    -0.04700
C2018       C  0.28358093  0.29173592  0.94954619    -0.22100
H2019       H  0.29415467  0.26059123  0.90391684     0.19700
H2020       H  0.31177292  0.22446167  0.99195906     0.18500
H2021       H  0.32601603  0.17992659  0.96281641     0.14800
H2022       H  0.27492892  0.30401190  0.93517551     0.14700
H2023       H  0.31264352  0.21212001  0.88820306     0.32800
H2024       H  0.29323206  0.27060843  0.00796909     0.35600
C2025       C  0.47633004  0.18637838  0.03294043     0.21200
C2026       C  0.48029606  0.17517416  0.00858478    -0.38700
C2027       C  0.45786082  0.16862985  0.99483464     0.20200
C2028       C  0.43331042  0.17262917  0.00478234     0.22800
C2029       C  0.42930480  0.18402932  0.02912456    -0.39200
C2030       C  0.45182272  0.19081183  0.04283493     0.21600
N2031       N  0.49445102  0.19693740  0.04819974    -0.32500
C2032       C  0.48162892  0.20865475  0.06783011    -0.10000
C2033       C  0.45491464  0.20488988  0.06539872    -0.28800
N2034       N  0.41520405  0.16481697  0.98784585    -0.45400
C2035       C  0.42830271  0.15603599  0.96688317    -0.04700
C2036       C  0.45498491  0.15822549  0.97045737    -0.22100
H2037       H  0.49948498  0.17253542  0.00057656     0.19700
H2038       H  0.41009027  0.18802396  0.03648464     0.18500
H2039       H  0.43978082  0.21371098  0.07686002     0.14800
H2040       H  0.47018191  0.15249869  0.95725543     0.14700
H2041       H  0.51428908  0.19807558  0.04427252     0.32800
H2042       H  0.39511550  0.16546942  0.99035023     0.35600
C2043       C  0.26770695  0.07168794  0.81939401     0.21200
C2044       C  0.24258350  0.07530049  0.80947391    -0.38700
C2045       C  0.22820817  0.05268668  0.80465206     0.20200
C2046       C  0.23815238  0.02849097  0.80963680     0.22800
C2047       C  0.26317454  0.02492673  0.81938044    -0.39200
C2048       C  0.27752135  0.04736974  0.82390104     0.21600
N2049       N  0.28546734  0.08984115  0.82537921    -0.32500
C2050       C  0.30667918  0.07681627  0.83362876    -0.10000
C2051       C  0.30241830  0.05031300  0.83279641    -0.28800
N2052       N  0.22248690  0.01007523  0.80030283    -0.45400
C2053       C  0.20260853  0.02233520  0.78860770    -0.04700
C2054       C  0.20519122  0.04901980  0.79140452    -0.22100
H2055       H  0.23516900  0.09421294  0.80493712     0.19700
H2056       H  0.27125908  0.00595178  0.82230592     0.18500
H2057       H  0.31551300  0.03521633  0.83873123     0.14800
H2058       H  0.19387948  0.06366319  0.78187331     0.14700
H2059       H  0.28312370  0.10978429  0.82443388     0.32800
H2060       H  0.22670381  0.99042638  0.79914728     0.35600
C2061       C  0.50074146  0.05778680  0.84791044     0.21200
C2062       C  0.52694023  0.06158957  0.84146791    -0.38700
C2063       C  0.53879000  0.04139206  0.82777349     0.20200
C2064       C  0.52543647  0.01913260  0.82127006     0.22800
C2065       C  0.49925100  0.01543708  0.82753211    -0.39200
C2066       C  0.48739672  0.03565744  0.84098181     0.21600
N2067       N  0.48468961  0.07476775  0.85916770    -0.32500
C2068       C  0.46092305  0.06352738  0.85910156    -0.10000
C2069       C  0.46182701  0.03905458  0.84795701    -0.28800
N2070       N  0.53974962  0.00424585  0.80569599    -0.45400
C2071       C  0.56220919  0.01720127  0.80155654    -0.04700
C2072       C  0.56259557  0.04030689  0.81548784    -0.22100
H2073       H  0.53697042  0.07944392  0.84573710     0.19700
H2074       H  0.48856110  0.99856719  0.82125464     0.18500
H2075       H  0.44582316  0.02594667  0.84458816     0.14800
H2076       H  0.57690927  0.05552417  0.81434623     0.14700
H2077       H  0.48940118  0.09334204  0.86551017     0.32800
H2078       H  0.53363174  0.98728506  0.79660943     0.35600
C2079       C  0.44720294  0.19951732  0.73837470     0.21200
C2080       C  0.42401488  0.19774097  0.75247636    -0.38700
C2081       C  0.42562752  0.18484708  0.77611156     0.20200
C2082       C  0.44864000  0.17468471  0.78513301     0.22800
C2083       C  0.47175561  0.17622369  0.77097972    -0.39200
C2084       C  0.47009723  0.18898439  0.74730194     0.21600
N2085       N  0.45155280  0.21381579  0.71725563    -0.32500
C2086       C  0.47744582  0.21274144  0.71292464    -0.10000
C2087       C  0.48949809  0.19696575  0.73102480    -0.28800
N2088       N  0.44528033  0.16419446  0.80849330    -0.45400
C2089       C  0.41984887  0.16739835  0.81431233    -0.04700
C2090       C  0.40694924  0.18016765  0.79453996    -0.22100
H2091       H  0.40621509  0.20653633  0.74594941     0.19700
H2092       H  0.48992127  0.16890808  0.77831994     0.18500
H2093       H  0.51012854  0.19446004  0.73384820     0.14800
H2094       H  0.38661587  0.18516026  0.79369066     0.14700
H2095       H  0.43829390  0.22595673  0.70824121     0.32800
H2096       H  0.45928790  0.15485733  0.81952291     0.35600
C2097       C  0.67954331  0.27523749  0.94063518     0.21200
C2098       C  0.68709975  0.24932988  0.93727521    -0.38700
C2099       C  0.69563870  0.23661287  0.95959861     0.20200
C2100       C  0.69600252  0.24880868  0.98336707     0.22800
C2101       C  0.68870043  0.27462861  0.98664214    -0.39200
C2102       C  0.68079211  0.28741379  0.96436852     0.21600
N2103       N  0.67122840  0.29176468  0.92254721    -0.32500
C2104       C  0.66768847  0.31469401  0.93482922    -0.10000
C2105       C  0.67354889  0.31270112  0.96093056    -0.28800
N2106       N  0.70749269  0.23397876  0.00096644    -0.45400
C2107       C  0.71549690  0.21238235  0.98848824    -0.04700
C2108       C  0.70787103  0.21300897  0.96263361    -0.22100
H2109       H  0.68727492  0.24010023  0.91852932     0.19700
H2110       H  0.69012041  0.28437597  0.00508043     0.18500
H2111       H  0.67193393  0.32755213  0.97556885     0.14800
H2112       H  0.71334972  0.19963327  0.94752405     0.14700
H2113       H  0.66808727  0.28771350  0.90306835     0.32800
H2114       H  0.71194387  0.23941694  0.01987146     0.35600
C2115       C  0.56688888  0.31967829  0.99663853     0.21200
C2116       C  0.57106888  0.29734994  0.01092572    -0.38700
C2117       C  0.55907609  0.29665060  0.03505239     0.20200
C2118       C  0.54392942  0.31663286  0.04435319     0.22800
C2119       C  0.54013984  0.33930460  0.03016084    -0.39200
C2120       C  0.55230785  0.34005311  0.00594741     0.21600
N2121       N  0.57572996  0.32456411  0.97291524    -0.32500
C2122       C  0.56716954  0.34843268  0.96704463    -0.10000
C2123       C  0.55250559  0.35882458  0.98721227    -0.28800
N2124       N  0.53136534  0.30939649  0.06586192    -0.45400
C2125       C  0.53832944  0.28457119  0.06993354    -0.04700
C2126       C  0.55603653  0.27626515  0.05141140    -0.22100
H2127       H  0.58197264  0.28120807  0.00332896     0.19700
H2128       H  0.52785551  0.35476845  0.03701915     0.18500
H2129       H  0.54375269  0.37772578  0.98825857     0.14800
H2130       H  0.56290911  0.25679778  0.04833393     0.14700
H2131       H  0.58782720  0.31278641  0.96181963     0.32800
H2132       H  0.51666061  0.31955239  0.07528861     0.35600
C2133       C  0.74083262  0.43678833  0.84493750     0.21200
C2134       C  0.76684023  0.43318985  0.83728327    -0.38700
C2135       C  0.77839637  0.45393331  0.82411471     0.20200
C2136       C  0.76505513  0.47655080  0.81960512     0.22800
C2137       C  0.73918771  0.47999540  0.82698620    -0.39200
C2138       C  0.72755660  0.45920516  0.83943965     0.21600
N2139       N  0.72487712  0.41967844  0.85630884    -0.32500
C2140       C  0.70126094  0.43120046  0.85728417    -0.10000
C2141       C  0.70223294  0.45582692  0.84697665    -0.28800
N2142       N  0.77876912  0.49217067  0.80438788    -0.45400
C2143       C  0.80081438  0.47941613  0.79816869    -0.04700
C2144       C  0.80160370  0.45558157  0.81061090    -0.22100
H2145       H  0.77687715  0.41517247  0.84024186     0.19700
H2146       H  0.72845645  0.49718069  0.82213484     0.18500
H2147       H  0.68647088  0.46942335  0.84521325     0.14800
H2148       H  0.81563745  0.44037416  0.80771606     0.14700
H2149       H  0.72951664  0.40109659  0.86231973     0.32800
H2150       H  0.77232837  0.50957257  0.79671586     0.35600
C2151       C  0.50707845  0.46617675  0.85364484     0.21200
C2152       C  0.48013690  0.46607749  0.84936521    -0.38700
C2153       C  0.47086389  0.48446770  0.83192701     0.20200
C2154       C  0.48724067  0.50198458  0.82024453     0.22800
C2155       C  0.51415172  0.50195945  0.82437364    -0.39200
C2156       C  0.52346434  0.48316510  0.84121953     0.21600
N2157       N  0.52083963  0.44914127  0.86738129    -0.32500
C2158       C  0.54616001  0.45489072  0.86319456    -0.10000
C2159       C  0.54859089  0.47606268  0.84698022    -0.28800
N2160       N  0.47460187  0.51496417  0.80194417    -0.45400
C2161       C  0.45023779  0.50500976  0.80089482    -0.04700
C2162       C  0.44693723  0.48642443  0.81996111    -0.22100
H2163       H  0.46756834  0.45167649  0.85773939     0.19700
H2164       H  0.52707042  0.51455238  0.81388112     0.18500
H2165       H  0.56630340  0.48459545  0.83978635     0.14800
H2166       H  0.43051645  0.47366222  0.82236642     0.14700
H2167       H  0.51349531  0.43370576  0.87792889     0.32800
H2168       H  0.48297017  0.52810749  0.78925182     0.35600
C2169       C  0.57515889  0.33667015  0.77666083     0.21200
C2170       C  0.56475070  0.33824015  0.75157804    -0.38700
C2171       C  0.55835368  0.31457146  0.73964510     0.20200
C2172       C  0.56243837  0.29133814  0.75183710     0.22800
C2173       C  0.57247178  0.28979987  0.77685284    -0.39200
C2174       C  0.57845712  0.31328647  0.78880570     0.21600
N2175       N  0.58204951  0.35619192  0.79253891    -0.32500
C2176       C  0.58936589  0.34502715  0.81499031    -0.10000
C2177       C  0.58727191  0.31830910  0.81335078    -0.28800
N2178       N  0.55296337  0.27178610  0.73776368    -0.45400
C2179       C  0.54188548  0.28228658  0.71659713    -0.04700
C2180       C  0.54533667  0.30905911  0.71679530    -0.22100
H2181       H  0.56115042  0.35652423  0.74238894     0.19700
H2182       H  0.57462391  0.27159913  0.78665007     0.18500
H2183       H  0.59159666  0.30441518  0.82817284     0.14800
H2184       H  0.53725158  0.32276513  0.70343266     0.14700
H2185       H  0.58130096  0.37585360  0.78857554     0.32800
H2186       H  0.55259050  0.25246067  0.74321528     0.35600
C2187       C  0.67311724  0.54286539  0.98649940     0.21200
C2188       C  0.65529616  0.53353933  0.96820868    -0.38700
C2189       C  0.64938012  0.50715337  0.96962544     0.20200
C2190       C  0.66064730  0.49119359  0.98768913     0.22800
C2191       C  0.67784979  0.50061127  0.00636588    -0.39200
C2192       C  0.68356275  0.52696509  0.00508588     0.21600
N2193       N  0.68575530  0.56560052  0.98600867    -0.32500
C2194       C  0.70467905  0.56389257  0.00402228    -0.10000
C2195       C  0.70318664  0.54039787  0.01689212    -0.28800
N2196       N  0.65533541  0.46635260  0.98244079    -0.45400
C2197       C  0.64026615  0.46649896  0.96112292    -0.04700
C2198       C  0.63580022  0.49157307  0.95275700    -0.22100
H2199       H  0.64810431  0.54548540  0.95279790     0.19700
H2200       H  0.68770668  0.48795294  0.01960936     0.18500
H2201       H  0.71692075  0.53275696  0.03060352     0.14800
H2202       H  0.62599166  0.49739030  0.93532884     0.14700
H2203       H  0.68380600  0.57993040  0.97212762     0.32800
H2204       H  0.66259635  0.45024232  0.99194727     0.35600
C2205       C  0.97348516  0.32459637  0.96823336     0.21200
C2206       C  0.95333348  0.34056050  0.97687705    -0.38700
C2207       C  0.95592033  0.35030134  0.00202665     0.20200
C2208       C  0.97686094  0.34452206  0.01760150     0.22800
C2209       C  0.99718248  0.32885185  0.00884910    -0.39200
C2210       C  0.99466219  0.31920091  0.98363933     0.21600
N2211       N  0.97349827  0.30960196  0.94694994    -0.32500
C2212       C  0.99455003  0.29418186  0.94906988    -0.10000
C2213       C  0.00854565  0.30021059  0.97137329    -0.28800
N2214       N  0.97310874  0.35347407  0.04173773    -0.45400
C2215       C  0.94958489  0.36503853  0.04141573    -0.04700
C2216       C  0.93849583  0.36368204  0.01692444    -0.22100
H2217       H  0.93610369  0.34382951  0.96548302     0.19700
H2218       H  0.01294903  0.32318894  0.02131643     0.18500
H2219       H  0.02496328  0.28990443  0.97913885     0.14800
H2220       H  0.91936754  0.37002211  0.01125361     0.14700
H2221       H  0.95856784  0.30787557  0.93346341     0.32800
H2222       H  0.98510656  0.35071053  0.05765025     0.35600
C2223       C  0.93420191  0.33237081  0.23521762     0.21200
C2224       C  0.92867122  0.32073230  0.25901387    -0.38700
C2225       C  0.94971402  0.31841268  0.27609356     0.20200
C2226       C  0.97424859  0.32717791  0.26985195     0.22800
C2227       C  0.97977463  0.33858387  0.24605627    -0.39200
C2228       C  0.95887751  0.34072671  0.22900394     0.21600
N2229       N  0.91778110  0.33660878  0.21555636    -0.32500
C2230       C  0.93220088  0.34754623  0.19665022    -0.10000
C2231       C  0.95795260  0.35032362  0.20435137    -0.28800
N2232       N  0.99152204  0.31996498  0.28768191    -0.45400
C2233       C  0.97827360  0.30608414  0.30537945    -0.04700
C2234       C  0.95196413  0.30498759  0.29894091    -0.22100
H2235       H  0.90961562  0.31327274  0.26354061     0.19700
H2236       H  0.99917944  0.34456991  0.24085662     0.18500
H2237       H  0.97371979  0.35888828  0.19362693     0.14800
H2238       H  0.93724050  0.29308915  0.30778033     0.14700
H2239       H  0.89793013  0.33258724  0.21513206     0.32800
H2240       H  0.01166064  0.32175044  0.28630408     0.35600
C2241       C  0.00863255  0.46790123  0.16079289     0.21200
C2242       C  0.03503235  0.46655317  0.16736206    -0.38700
C2243       C  0.04452878  0.48667987  0.18290405     0.20200
C2244       C  0.02883672  0.50668540  0.19109387     0.22800
C2245       C  0.00240538  0.50802877  0.18453937    -0.39200
C2246       C  0.99286784  0.48778991  0.16914914     0.21600
N2247       N  0.99460886  0.44985464  0.14844432    -0.32500
C2248       C  0.96962306  0.45797491  0.14913630    -0.10000
C2249       C  0.96776828  0.48177158  0.16172612    -0.28800
N2250       N  0.04140670  0.52149469  0.20832276    -0.45400
C2251       C  0.06512190  0.51065370  0.21173880    -0.04700
C2252       C  0.06795995  0.48914383  0.19569574    -0.22100
H2253       H  0.04694649  0.45026549  0.16193361     0.19700
H2254       H  0.98987208  0.52297106  0.19208947     0.18500
H2255       H  0.95031720  0.49245809  0.16613715     0.14800
H2256       H  0.08372983  0.47543454  0.19570028     0.14700
H2257       H  0.00147948  0.43235043  0.14117139     0.32800
H2258       H  0.03345621  0.53689048  0.21866714     0.35600
C2259       C  0.81982830  0.24498589  0.04122928     0.21200
C2260       C  0.83265015  0.26830271  0.03623923    -0.38700
C2261       C  0.83622477  0.28478622  0.05745937     0.20200
C2262       C  0.82786528  0.27852550  0.08193700     0.22800
C2263       C  0.81481641  0.25521126  0.08691521    -0.39200
C2264       C  0.81113165  0.23868070  0.06558273     0.21600
N2265       N  0.81133199  0.22776516  0.02373066    -0.32500
C2266       C  0.79688332  0.21029983  0.03673522    -0.10000
C2267       C  0.79648725  0.21640944  0.06300837    -0.28800
N2268       N  0.83318792  0.29783107  0.09866311    -0.45400
C2269       C  0.84472120  0.31662058  0.08460074    -0.04700
C2270       C  0.84693719  0.30909629  0.05883626    -0.22100
H2271       H  0.83859906  0.27363439  0.01701274     0.19700
H2272       H  0.80731581  0.25067120  0.10580902     0.18500
H2273       H  0.78447306  0.20767347  0.07764328     0.14800
H2274       H  0.85548203  0.31990115  0.04322671     0.14700
H2275       H  0.81291375  0.22933359  0.00374942     0.32800
H2276       H  0.82908061  0.29827955  0.11833924     0.35600
C2277       C  0.84742354  0.50990693  0.05254171     0.21200
C2278       C  0.84230454  0.53644939  0.05344351    -0.38700
C2279       C  0.82809547  0.54628958  0.03271497     0.20200
C2280       C  0.81979703  0.53077702  0.01255311     0.22800
C2281       C  0.82492266  0.50420378  0.01167095    -0.39200
C2282       C  0.83898314  0.49436032  0.03248523     0.21600
N2283       N  0.85884038  0.49574868  0.07081958    -0.32500
C2284       C  0.85764491  0.47096047  0.06248172    -0.10000
C2285       C  0.84538490  0.46929276  0.03856655    -0.28800
N2286       N  0.80294176  0.54353334  0.99772082    -0.45400
C2287       C  0.79963654  0.56703192  0.00891189    -0.04700
C2288       C  0.81575595  0.56974676  0.03032560    -0.22100
H2289       H  0.84765797  0.54827100  0.06985289     0.19700
H2290       H  0.81718476  0.49185151  0.99664614     0.18500
H2291       H  0.84114586  0.45206365  0.02748351     0.14800
H2292       H  0.81524322  0.58504937  0.04457532     0.14700
H2293       H  0.86643967  0.50250659  0.08825730     0.32800
H2294       H  0.79183553  0.53553913  0.98288652     0.35600
C2295       C  0.78193545  0.42855547  0.19430528     0.21200
C2296       C  0.75977020  0.42143604  0.20834495    -0.38700
C2297       C  0.74024702  0.44018601  0.21023244     0.20200
C2298       C  0.74268276  0.46402849  0.19875540     0.22800
C2299       C  0.76499417  0.47128206  0.18514402    -0.39200
C2300       C  0.78453903  0.45269000  0.18348757     0.21600
N2301       N  0.80287333  0.41405640  0.18913143    -0.32500
C2302       C  0.81896053  0.42915101  0.17508173    -0.10000
C2303       C  0.80831730  0.45351264  0.17142921    -0.28800
N2304       N  0.72308450  0.47943730  0.20573502    -0.45400
C2305       C  0.70830083  0.46584252  0.22244040    -0.04700
C2306       C  0.71816907  0.44099512  0.22536107    -0.22100
H2307       H  0.75813803  0.40291745  0.21764339     0.19700
H2308       H  0.76721918  0.49028255  0.17698192     0.18500
H2309       H  0.81624940  0.46917449  0.16023927     0.14800
H2310       H  0.71223104  0.42684972  0.23939571     0.14700
H2311       H  0.80573325  0.39484271  0.19421065     0.32800
H2312       H  0.72173433  0.49915353  0.20205125     0.35600
C2313       C  0.94376245  0.71867213  0.23663104     0.21200
C2314       C  0.93450214  0.72387254  0.26153848    -0.38700
C2315       C  0.92576776  0.70254947  0.27545882     0.20200
C2316       C  0.92596054  0.67787194  0.26524817     0.22800
C2317       C  0.93548244  0.67260417  0.24034997    -0.39200
C2318       C  0.94447673  0.69399206  0.22643200     0.21600
N2319       N  0.95645422  0.73510817  0.22132938    -0.32500
C2320       C  0.96595650  0.72099561  0.20139221    -0.10000
C2321       C  0.95849953  0.69521170  0.20368384    -0.28800
N2322       N  0.91797196  0.66078854  0.28294160    -0.45400
C2323       C  0.91304161  0.67466604  0.30465315    -0.04700
C2324       C  0.91763597  0.70081224  0.30068956    -0.22100
H2325       H  0.93526790  0.74299605  0.26994144     0.19700
H2326       H  0.93694585  0.65315335  0.23287327     0.18500
H2327       H  0.96529752  0.67909326  0.19223472     0.14800
H2328       H  0.91588642  0.71635335  0.31457601     0.14700
H2329       H  0.96093183  0.75428414  0.22569401     0.32800
H2330       H  0.91684971  0.64082116  0.28068395     0.35600
C2331       C  0.94393894  0.68570901  0.50081740     0.21200
C2332       C  0.95309055  0.68231645  0.52602252    -0.38700
C2333       C  0.95120565  0.70385066  0.54240562     0.20200
C2334       C  0.94095786  0.72698465  0.53423863     0.22800
C2335       C  0.93186535  0.73038139  0.50897656    -0.39200
C2336       C  0.93382712  0.70887386  0.49258819     0.21600
N2337       N  0.94331163  0.66810028  0.48175475    -0.32500
C2338       C  0.93265056  0.68004392  0.46118178    -0.10000
C2339       C  0.92670803  0.70563867  0.46713443    -0.28800
N2340       N  0.94534637  0.74556066  0.55182578    -0.45400
C2341       C  0.95914519  0.73456132  0.57108068    -0.04700
C2342       C  0.96244246  0.70829672  0.56614073    -0.22100
H2343       H  0.96191637  0.66448979  0.53214605     0.19700
H2344       H  0.92466708  0.74872652  0.50230942     0.18500
H2345       H  0.91711117  0.71952123  0.45497862     0.14800
H2346       H  0.97534412  0.69536877  0.57616481     0.14700
H2347       H  0.94887254  0.64881205  0.48297975     0.32800
H2348       H  0.94273641  0.76529567  0.54901000     0.35600
C2349       C  0.04312159  0.55406121  0.32890125     0.21200
C2350       C  0.03172875  0.57543721  0.34128532    -0.38700
C2351       C  0.00528642  0.57295325  0.34761031     0.20200
C2352       C  0.99106838  0.55110774  0.34153862     0.22800
C2353       C  0.00256015  0.52958644  0.32974675    -0.39200
C2354       C  0.02907599  0.53185387  0.32393253     0.21600
N2355       N  0.06642702  0.55310188  0.31703809    -0.32500
C2356       C  0.06715735  0.53020936  0.30421846    -0.10000
C2357       C  0.04443070  0.51621974  0.30892038    -0.28800
N2358       N  0.96582964  0.55433300  0.34748407    -0.45400
C2359       C  0.96404533  0.57823218  0.35796204    -0.04700
C2360       C  0.98826705  0.59034112  0.35854548    -0.22100
H2361       H  0.04232998  0.59314920  0.34466796     0.19700
H2362       H  0.99137564  0.51275013  0.32430298     0.18500
H2363       H  0.03830801  0.49868248  0.29927334     0.14800
H2364       H  0.99265082  0.60958728  0.36542821     0.14700
H2365       H  0.07946968  0.56837765  0.31503624     0.32800
H2366       H  0.95080727  0.54107620  0.34476586     0.35600
C2367       C  0.82411167  0.49595161  0.49798815     0.21200
C2368       C  0.82613888  0.52285979  0.49910071    -0.38700
C2369       C  0.84300416  0.53402871  0.48128202     0.20200
C2370       C  0.85731466  0.51946287  0.46399877     0.22800
C2371       C  0.85496824  0.49245859  0.46261241    -0.39200
C2372       C  0.83761158  0.48125461  0.48019042     0.21600
N2373       N  0.80675243  0.48150815  0.51048442    -0.32500
C2374       C  0.80819224  0.45750782  0.50005646    -0.10000
C2375       C  0.82779541  0.45641164  0.48147497    -0.28800
N2376       N  0.87056168  0.53488248  0.44794719    -0.45400
C2377       C  0.86407531  0.55932434  0.45470001    -0.04700
C2378       C  0.84692125  0.55956612  0.47540107    -0.22100
H2379       H  0.81425884  0.53436728  0.51192244     0.19700
H2380       H  0.86483814  0.48118683  0.44801830     0.18500
H2381       H  0.83215329  0.44051630  0.46861055     0.14800
H2382       H  0.83759866  0.57612741  0.48411328     0.14700
H2383       H  0.79328907  0.48826760  0.52393694     0.32800
H2384       H  0.88185007  0.52915101  0.43223434     0.35600
C2385       C  0.82403671  0.73493837  0.45495743     0.21200
C2386       C  0.81800681  0.74623895  0.47873376    -0.38700
C2387       C  0.80878475  0.77154337  0.47779113     0.20200
C2388       C  0.80578872  0.78473862  0.45490643     0.22800
C2389       C  0.81248615  0.77358794  0.43108841    -0.39200
C2390       C  0.82175282  0.74819539  0.43204707     0.21600
N2391       N  0.83151970  0.71055262  0.45066764    -0.32500
C2392       C  0.83437958  0.70828075  0.42485641    -0.10000
C2393       C  0.82872209  0.73141744  0.41255412    -0.28800
N2394       N  0.79228460  0.80657798  0.45882011    -0.45400
C2395       C  0.78630917  0.80695596  0.48424255    -0.04700
C2396       C  0.79690028  0.78575454  0.49672564    -0.22100
H2397       H  0.81897151  0.73558272  0.49654265     0.19700
H2398       H  0.80940284  0.78343105  0.41305287     0.18500
H2399       H  0.82959590  0.73537394  0.39214251     0.14800
H2400       H  0.79315292  0.77970230  0.51628367     0.14700
H2401       H  0.83512774  0.69649314  0.46449865     0.32800
H2402       H  0.78479278  0.81863597  0.44464520     0.35600
C2403       C  0.77951133  0.57694722  0.31596239     0.21200
C2404       C  0.76914176  0.56888909  0.29233265    -0.38700
C2405       C  0.74420077  0.55817870  0.29323383     0.20200
C2406       C  0.73050418  0.55521884  0.31592160     0.22800
C2407       C  0.74073415  0.56381110  0.33965244    -0.39200
C2408       C  0.76570596  0.57494071  0.33871714     0.21600
N2409       N  0.80344023  0.58638834  0.32024567    -0.32500
C2410       C  0.80496004  0.59089921  0.34590878    -0.10000
C2411       C  0.78170307  0.58417016  0.35809187    -0.28800
N2412       N  0.70880213  0.54108621  0.31182159    -0.45400
C2413       C  0.70897649  0.53486122  0.28636325    -0.04700
C2414       C  0.73044270  0.54592263  0.27421016    -0.22100
H2415       H  0.78013670  0.56991014  0.27461513     0.19700
H2416       H  0.73046406  0.56116828  0.35761262     0.18500
H2417       H  0.77736666  0.58524628  0.37845806     0.14800
H2418       H  0.73657920  0.54321585  0.25444130     0.14700
H2419       H  0.81788174  0.58957355  0.30652607     0.32800
H2420       H  0.69606962  0.53414712  0.32579929     0.35600
C2421       C  0.48385371  0.51432467  0.68673528     0.21200
C2422       C  0.51054175  0.51203029  0.68213552    -0.38700
C2423       C  0.52162609  0.53117020  0.66683205     0.20200
C2424       C  0.50708687  0.55077605  0.65622696     0.22800
C2425       C  0.48037365  0.55333048  0.66115023    -0.39200
C2426       C  0.46934165  0.53445479  0.67708790     0.21600
N2427       N  0.47020468  0.50115071  0.70417231    -0.32500
C2428       C  0.44719507  0.51349592  0.70686867    -0.10000
C2429       C  0.44560073  0.53397388  0.68960798    -0.28800
N2430       N  0.52249660  0.56718234  0.64338032    -0.45400
C2431       C  0.54699940  0.55823952  0.64639956    -0.04700
C2432       C  0.54726471  0.53586125  0.66098701    -0.22100
H2433       H  0.52213564  0.49729287  0.69118823     0.19700
H2434       H  0.46936955  0.56964905  0.65435511     0.18500
H2435       H  0.43084337  0.54874160  0.68909762     0.14800
H2436       H  0.56397824  0.52481405  0.66688953     0.14700
H2437       H  0.47742190  0.48650422  0.71584387     0.32800
H2438       H  0.51686919  0.58405261  0.63409823     0.35600
C2439       C  0.67712730  0.73462196  0.57365634     0.21200
C2440       C  0.68161410  0.76114133  0.57736610    -0.38700
C2441       C  0.68617318  0.77548176  0.55492961     0.20200
C2442       C  0.68563922  0.76420748  0.53072088     0.22800
C2443       C  0.68134860  0.73771787  0.52707643    -0.39200
C2444       C  0.67747453  0.72334862  0.54946370     0.21600
N2445       N  0.67244596  0.71680419  0.59174715    -0.32500
C2446       C  0.67025642  0.69398141  0.57900076    -0.10000
C2447       C  0.67342820  0.69728468  0.55258079    -0.28800
N2448       N  0.69409858  0.78079596  0.51293240    -0.45400
C2449       C  0.70124162  0.80257296  0.52572346    -0.04700
C2450       C  0.69581215  0.80022731  0.55198702    -0.22100
H2451       H  0.68261083  0.76974161  0.59638233     0.19700
H2452       H  0.68214568  0.72875870  0.50821319     0.18500
H2453       H  0.67147251  0.68283596  0.53757899     0.14800
H2454       H  0.70193647  0.81315071  0.56726351     0.14700
H2455       H  0.67018210  0.72004228  0.61149261     0.32800
H2456       H  0.69814749  0.77628509  0.49371196     0.35600
C2457       C  0.66192150  0.50149105  0.54911966     0.21200
C2458       C  0.67102423  0.47657778  0.55450464    -0.38700
C2459       C  0.68552385  0.46459128  0.53491039     0.20200
C2460       C  0.69024269  0.47652915  0.51163381     0.22800
C2461       C  0.68146809  0.50154630  0.50641747    -0.39200
C2462       C  0.66735262  0.51364622  0.52611206     0.21600
N2463       N  0.65008051  0.51781623  0.56549506    -0.32500
C2464       C  0.64844193  0.54063678  0.55308002    -0.10000
C2465       C  0.65906264  0.53885540  0.52845414    -0.28800
N2466       N  0.70774200  0.46320314  0.49792059    -0.45400
C2467       C  0.71505185  0.44303359  0.51268275    -0.04700
C2468       C  0.70110108  0.44291587  0.53574008    -0.22100
H2469       H  0.66842631  0.46786170  0.57319737     0.19700
H2470       H  0.68677304  0.51150992  0.48895066     0.18500
H2471       H  0.66156964  0.55421068  0.51468905     0.14800
H2472       H  0.70476882  0.43103518  0.55237972     0.14700
H2473       H  0.64502150  0.51420901  0.58460424     0.32800
H2474       H  0.71672088  0.46935524  0.48099551     0.35600
C2475       C  0.74277203  0.56095229  0.66515406     0.21200
C2476       C  0.76941625  0.56161937  0.67133062    -0.38700
C2477       C  0.77910307  0.53995028  0.68442354     0.20200
C2478       C  0.76341155  0.51915241  0.69024437     0.22800
C2479       C  0.73691852  0.51860507  0.68430788    -0.39200
C2480       C  0.72720444  0.54035575  0.67190030     0.21600
N2481       N  0.72844575  0.57951791  0.65401658    -0.32500
C2482       C  0.70358868  0.57077440  0.65433292    -0.10000
C2483       C  0.70213076  0.54644145  0.66533872    -0.28800
N2484       N  0.77604701  0.50230271  0.70503423    -0.45400
C2485       C  0.79981885  0.51253941  0.70976169    -0.04700
C2486       C  0.80271182  0.53584758  0.69662213    -0.22100
H2487       H  0.78140372  0.57823907  0.66730686     0.19700
H2488       H  0.72447591  0.50286619  0.69010661     0.18500
H2489       H  0.68498039  0.53473964  0.66811065     0.14800
H2490       H  0.81864729  0.54934449  0.69824788     0.14700
H2491       H  0.73502487  0.59724167  0.64719152     0.32800
H2492       H  0.76803389  0.48578722  0.71323370     0.35600
C2493       C  0.55820444  0.66900183  0.50673999     0.21200
C2494       C  0.54745350  0.66748161  0.48178313    -0.38700
C2495       C  0.55033015  0.68963345  0.46647145     0.20200
C2496       C  0.56346204  0.71117485  0.47536561     0.22800
C2497       C  0.57373465  0.71282117  0.50029069    -0.39200
C2498       C  0.57034226  0.69109041  0.51565639     0.21600
N2499       N  0.55894224  0.65052130  0.52482728    -0.32500
C2500       C  0.57135557  0.66117409  0.54541345    -0.10000
C2501       C  0.57843595  0.68655999  0.54044086    -0.28800
N2502       N  0.56171952  0.73043852  0.45850186    -0.45400
C2503       C  0.54644069  0.72191350  0.43895568    -0.04700
C2504       C  0.53940069  0.69617301  0.44293666    -0.22100
H2505       H  0.53712229  0.65057673  0.47503593     0.19700
H2506       H  0.58318589  0.73008533  0.50741884     0.18500
H2507       H  0.58968446  0.69936103  0.55263312     0.14800
H2508       H  0.52558934  0.68492958  0.43189827     0.14700
H2509       H  0.55234417  0.63157417  0.52293410     0.32800
H2510       H  0.56823954  0.74928772  0.46151093     0.35600
C2511       C  0.56768978  0.71269461  0.76245754     0.21200
C2512       C  0.57906938  0.71509134  0.73810761    -0.38700
C2513       C  0.58660294  0.69210242  0.72616708     0.20200
C2514       C  0.58359296  0.66839764  0.73779519     0.22800
C2515       C  0.57195720  0.66596750  0.76228743    -0.39200
C2516       C  0.56388039  0.68912847  0.77413848     0.21600
N2517       N  0.55638844  0.73154978  0.77600684    -0.32500
C2518       C  0.54445875  0.72026708  0.79629931    -0.10000
C2519       C  0.54910694  0.69369514  0.79614007    -0.28800
N2520       N  0.59092788  0.64939307  0.72154271    -0.45400
C2521       C  0.59800902  0.66117031  0.69931344    -0.04700
C2522       C  0.59568612  0.68780825  0.70158553    -0.22100
H2523       H  0.58071194  0.73349399  0.72857376     0.19700
H2524       H  0.56836200  0.64737903  0.77088989     0.18500
H2525       H  0.54086025  0.67947077  0.80889407     0.14800
H2526       H  0.59927938  0.70206312  0.68689724     0.14700
H2527       H  0.55551165  0.75089989  0.77073920     0.32800
H2528       H  0.58991938  0.62960757  0.72487177     0.35600
loop_ 
_geom_bond_atom_site_label_1 
_geom_bond_atom_site_label_2 
_geom_bond_distance 
_geom_bond_site_symmetry_2 
_ccdc_geom_bond_type 
O1           C17   1.280       .  A
O1           Zn7   2.041       .  S
C2           O18   1.272       .  A
C2           O15   1.280       .  A
C2         C2446   1.471       .  S
O3           C16   1.275       .  A
O3          Cd10   2.064       .  S
O4           C22   1.278       .  A
O4          Cd13   2.095       .  S
O5           C19   1.282       .  A
O5           Cd9   2.094       .  S
O6           C17   1.278       .  A
O6           Cd9   2.088       .  S
Zn7          O18   2.005       .  S
Zn7          O20   2.048       .  S
Zn7          O12   1.909       .  S
O8           C19   1.279       .  A
O8          Cd13   2.090       .  S
Cd9          O11   2.099       .  S
Cd9          O12   1.974       .  S
Cd10         O14   2.058       .  S
Cd10         O23   2.075       .  S
Cd10         O12   1.965       .  S
O11          C21   1.280       .  A
O12         Cd13   1.980       .  S
Cd13         O15   2.100       .  S
O14          C21   1.273       .  A
C16          O20   1.281       .  A
C16        C2500   1.476       .  S
C17        C2521   1.479       .  S
C19        C2482   1.477       .  S
C21        C2431   1.470       .  S
C22          O23   1.275       .  A
C22        C2464   1.471       .  S
O24          C40   1.285       .  A
O24         Zn30   2.075       .  S
C25          O41   1.277       .  A
C25          O38   1.279       .  A
C25        C2323   1.476       .  S
O26          C39   1.273       .  A
O26         Cd33   2.050       .  S
O27          C45   1.279       .  A
O27         Cd36   2.094       .  S
O28          C42   1.278       .  A
O28         Cd32   2.093       .  S
O29          C40   1.278       .  A
O29         Cd32   2.074       .  S
Zn30         O41   2.033       .  S
Zn30         O43   2.089       .  S
Zn30         O35   1.920       .  S
O31          C42   1.272       .  A
O31         Cd36   2.055       .  S
Cd32         O34   2.081       .  S
Cd32         O35   1.974       .  S
Cd33         O37   2.074       .  S
Cd33         O46   2.062       .  S
Cd33         O35   1.952       .  S
O34          C44   1.276       .  A
O35         Cd36   1.976       .  S
Cd36         O38   2.082       .  S
O37          C44   1.275       .  A
C39          O43   1.284       .  A
C39        C2359   1.477       .  S
C40        C2410   1.481       .  S
C42        C2392   1.466       .  S
C44        C2377   1.470       .  S
C45          O46   1.275       .  A
C45        C2338   1.475       .  S
O47          C63   1.281       .  A
O47         Zn53   2.065       .  S
C48          O64   1.274       .  A
C48          O61   1.278       .  A
C48        C2284   1.475       .  S
O49          C62   1.276       .  A
O49         Cd56   2.064       .  S
O50          C68   1.277       .  A
O50         Cd59   2.083       .  S
O51          C65   1.280       .  A
O51         Cd55   2.104       .  S
O52          C63   1.274       .  A
O52         Cd55   2.060       .  S
Zn53         O64   2.017       .  S
Zn53         O66   2.039       .  S
Zn53         O58   1.937       .  S
O54          C65   1.273       .  A
O54         Cd59   2.044       .  S
Cd55         O57   2.093       .  S
Cd55         O58   1.986       .  S
Cd56         O60   2.069       .  S
Cd56         O69   2.094       .  S
Cd56         O58   1.989       .  S
O57          C67   1.280       .  A
O58         Cd59   1.980       .  S
Cd59         O61   2.088       .  S
O60          C67   1.275       .  A
C62          O66   1.279       .  A
C62        C2302   1.471       .  S
C63        C2248   1.480       .  S
C65        C2215   1.474       .  S
C67        C2230   1.477       .  S
C68          O69   1.278       .  A
C68        C2269   1.482       .  S
C70         C554   1.497       .  S
C70          C71   1.417       .  A
C70          C75   1.416       .  A
C71          C72   1.405       .  A
C71          H76   1.083       .  S
C72        C2287   1.478       .  S
C72          C73   1.394       .  A
C73          C74   1.396       .  A
C73          H77   1.083       .  S
C74        C2194   1.480       .  S
C74          C75   1.404       .  A
C75          H78   1.083       .  S
C79         C733   1.502       .  S
C79          C80   1.418       .  A
C79          C84   1.421       .  A
C80          C81   1.409       .  A
C80          H85   1.083       .  S
C81        C2251   1.487       .  S
C81          C82   1.394       .  A
C82          C83   1.397       .  A
C82          H86   1.083       .  S
C83        C2356   1.488       .  S
C83          C84   1.413       .  A
C84          H87   1.083       .  S
O88         C104   1.280       .  A
O88         Zn94   2.032       .  S
C89         O105   1.274       .  A
C89         O102   1.279       .  A
C89        C2104   1.478       .  S
O90         C103   1.274       .  A
O90         Cd97   2.061       .  S
O91         C109   1.278       .  A
O91        Cd100   2.093       .  S
O92         C106   1.283       .  A
O92         Cd96   2.099       .  S
O93         C104   1.279       .  A
O93         Cd96   2.095       .  S
Zn94        O105   2.026       .  S
Zn94        O107   2.026       .  S
Zn94         O99   1.910       .  S
O95         C106   1.278       .  A
O95        Cd100   2.082       .  S
Cd96         O98   2.110       .  S
Cd96         O99   1.977       .  S
Cd97        O101   2.063       .  S
Cd97        O110   2.064       .  S
Cd97         O99   1.967       .  S
O98         C108   1.281       .  A
O99        Cd100   1.980       .  S
Cd100       O102   2.099       .  S
O101        C108   1.274       .  A
C103        O107   1.277       .  A
C103       C2122   1.469       .  S
C104       C2176   1.479       .  S
C106       C2140   1.473       .  S
C108       C2158   1.476       .  S
C109        O110   1.274       .  A
C109       C2197   1.468       .  S
O111        C127   1.280       .  A
O111       Zn117   2.055       .  S
C112        O128   1.273       .  A
C112        O125   1.278       .  A
C112       C2068   1.470       .  S
O113        C126   1.277       .  A
O113       Cd120   2.078       .  S
O114        C132   1.278       .  A
O114       Cd123   2.072       .  S
O115        C129   1.279       .  A
O115       Cd119   2.091       .  S
O116        C127   1.272       .  A
O116       Cd119   2.052       .  S
Zn117       O128   2.005       .  S
Zn117       O130   2.034       .  S
Zn117       O122   1.928       .  S
O118        C129   1.274       .  A
O118       Cd123   2.066       .  S
Cd119       O121   2.073       .  S
Cd119       O122   1.977       .  S
Cd120       O124   2.086       .  S
Cd120       O133   2.086       .  S
Cd120       O122   1.990       .  S
O121        C131   1.278       .  A
O122       Cd123   1.980       .  S
Cd123       O125   2.081       .  S
O124        C131   1.277       .  A
C126        O130   1.278       .  A
C126       C2089   1.476       .  S
C127       C2035   1.473       .  S
C129       C1996   1.476       .  S
C131       C2014   1.476       .  S
C132        O133   1.277       .  A
C132       C2050   1.475       .  S
C134       C2032   1.478       .  S
C134        C135   1.408       .  A
C134        C139   1.396       .  A
C135        C136   1.413       .  A
C135        H140   1.083       .  S
C136        C756   1.480       .  S
C136        C137   1.409       .  A
C137        C138   1.400       .  A
C137        H141   1.084       .  S
C138       C2125   1.472       .  S
C138        C139   1.396       .  A
C139        H142   1.085       .  S
C143       C2179   1.489       .  S
C143        C144   1.413       .  A
C143        C148   1.398       .  A
C144        C145   1.419       .  A
C144        H149   1.083       .  S
C145        C447   1.490       .  S
C145        C146   1.413       .  A
C146        C147   1.404       .  A
C146        H150   1.084       .  S
C147       C2086   1.478       .  S
C147        C148   1.394       .  A
C148        H151   1.084       .  S
C152        C586   1.493       .  S
C152        C153   1.416       .  A
C152        C157   1.417   1_545  A
C153        C154   1.405       .  A
C153        H158   1.083       .  S
C154       C2071   1.478       .  S
C154        C155   1.394       .  A
C155        C156   1.394   1_545  A
C155        H159   1.084       .  S
C156       C1978   1.479       .  S
C156        C157   1.407       .  A
C157        H160   1.083       .  S
C161       C1942   1.479       .  S
C161        C162   1.395       .  A
C161        C166   1.411       .  A
C162        C163   1.396       .  A
C162        H167   1.084       .  S
C163       C1960   1.483   1_565  S
C163        C164   1.407       .  A
C164        C165   1.415       .  A
C164        H168   1.084   1_565  S
C165        C704   1.493       .  S
C165        C166   1.417       .  A
C166        H169   1.083       .  S
C170       C2017   1.482       .  S
C170        C171   1.408       .  A
C170        C175   1.397   1_556  A
C171        C172   1.416   1_556  A
C171        H176   1.083       .  S
C172        C738   1.489   1_554  S
C172        C173   1.415       .  A
C173        C174   1.407       .  A
C173        H177   1.083       .  S
C174       C1924   1.480       .  S
C174        C175   1.395       .  A
C175        H178   1.085       .  S
C179        C711   1.499       .  S
C179        C180   1.420       .  A
C179        C184   1.414       .  A
C180        C181   1.414       .  A
C180        H185   1.083       .  S
C181       C1909   1.487       .  S
C181        C182   1.398       .  A
C182        C183   1.395       .  A
C182        H186   1.084       .  S
C183       C1999   1.481       .  S
C183        C184   1.405       .  A
C184        H187   1.084       .  S
C188       C1873   1.486       .  S
C188        C189   1.396   1_565  A
C188        C193   1.413       .  A
C189        C190   1.394       .  A
C189        H194   1.085       .  S
C190       C1891   1.481       .  S
C190        C191   1.407       .  A
C191        C192   1.417       .  A
C191        H195   1.083       .  S
C192        C747   1.496       .  S
C192        C193   1.419   1_545  A
C193        H196   1.083       .  S
C197       C1855   1.488       .  S
C197        C198   1.412       .  A
C197        C202   1.397       .  A
C198        C199   1.417   1_455  A
C198        H203   1.083       .  S
C199        C684   1.490       .  S
C199        C200   1.413       .  A
C200        C201   1.405       .  A
C200        H204   1.084       .  S
C201       C2212   1.482       .  S
C201        C202   1.397   1_655  A
C202        H205   1.084       .  S
C206       C2233   1.477       .  S
C206        C207   1.408       .  A
C206        C211   1.394   1_655  A
C207        C208   1.415   1_655  A
C207        H212   1.083       .  S
C208        C675   1.486       .  S
C208        C209   1.413       .  A
C209        C210   1.405       .  A
C209        H213   1.083       .  S
C210       C1834   1.475       .  S
C210        C211   1.396       .  A
C211        H214   1.086       .  S
O215        C231   1.280       .  A
O215       Zn221   2.052       .  S
C216        O232   1.273       .  A
C216        O229   1.282       .  A
C216       C1906   1.480       .  S
O217        C230   1.276       .  A
O217       Cd224   2.084       .  S
O218        C236   1.282       .  A
O218       Cd227   2.099       .  S
O219        C233   1.280       .  A
O219       Cd223   2.104       .  S
O220        C231   1.274       .  A
O220       Cd223   2.059       .  S
Zn221       O232   1.996       .  S
Zn221       O234   2.049       .  S
Zn221       O226   1.931       .  S
O222        C233   1.275       .  A
O222       Cd227   2.079       .  S
Cd223       O225   2.077       .  S
Cd223       O226   1.989       .  S
Cd224       O228   2.074       .  S
Cd224       O237   2.075       .  S
Cd224       O226   1.999       .  S
O225        C235   1.278       .  A
O226       Cd227   1.993       .  S
Cd227       O229   2.115       .  S
O228        C235   1.276       .  A
C230        O234   1.278       .  A
C230       C1888   1.481       .  S
C231       C1963   1.475       .  S
C233       C1852   1.484       .  S
C235       C1837   1.473       .  S
C236        O237   1.276       .  A
C236       C1927   1.479       .  S
O238        C254   1.284       .  A
O238       Zn244   2.073       .  S
C239        O255   1.273       .  A
C239        O252   1.280       .  A
C239       C1981   1.475       .  S
O240        C253   1.276       .  A
O240       Cd247   2.063       .  S
O241        C259   1.279       .  A
O241       Cd250   2.093       .  S
O242        C256   1.281       .  A
O242       Cd246   2.105       .  S
O243        C254   1.277       .  A
O243       Cd246   2.064       .  S
Zn244       O255   2.013       .  S
Zn244       O257   2.054       .  S
Zn244       O249   1.930       .  S
O245        C256   1.275       .  A
O245       Cd250   2.073       .  S
Cd246       O248   2.086       .  S
Cd246       O249   1.967       .  S
Cd247       O251   2.074       .  S
Cd247       O260   2.072       .  S
Cd247       O249   1.979       .  S
O248        C258   1.277       .  A
O249       Cd250   1.984       .  S
Cd250       O252   2.091       .  S
O251        C258   1.275       .  A
C253        O257   1.282       .  A
C253       C1798   1.476       .  S
C254       C1780   1.480       .  S
C256       C1765   1.476       .  S
C258       C1816   1.474       .  S
C259        O260   1.276       .  A
C259       C1747   1.479       .  S
O261        C277   1.282       .  A
O261       Zn267   2.062       .  S
C262        O278   1.272       .  A
C262        O275   1.280       .  A
C262       C1726   1.473       .  S
O263        C276   1.275       .  A
O263       Cd270   2.064       .  S
O264        C282   1.279       .  A
O264       Cd273   2.083       .  S
O265        C279   1.284       .  A
O265       Cd269   2.132       .  S
O266        C277   1.275       .  A
O266       Cd269   2.063       .  S
Zn267       O278   1.999       .  S
Zn267       O280   2.047       .  S
Zn267       O272   1.933       .  S
O268        C279   1.273       .  A
O268       Cd273   2.054       .  S
Cd269       O271   2.107       .  S
Cd269       O272   1.990       .  S
Cd270       O274   2.071       .  S
Cd270       O283   2.061       .  S
Cd270       O272   1.984       .  S
O271        C281   1.282       .  A
O272       Cd273   1.984       .  S
Cd273       O275   2.100       .  S
O274        C281   1.276       .  A
C276        O280   1.279       .  A
C276       C1690   1.477       .  S
C277       C1711   1.479       .  S
C279       C1870   1.482       .  S
C281       C1945   1.476       .  S
C282        O283   1.273       .  A
C282       C1675   1.470       .  S
C284        C639   1.485       .  S
C284        C285   1.413   1_455  A
C284        C289   1.415       .  A
C285        C286   1.405       .  A
C285        H290   1.083       .  S
C286       C2341   1.472       .  S
C286        C287   1.393       .  A
C287        C288   1.395   1_655  A
C287        H291   1.085       .  S
C288       C1693   1.478       .  S
C288        C289   1.406       .  A
C289        H292   1.083       .  S
C293        C765   1.488       .  S
C293        C294   1.413       .  A
C293        C298   1.418       .  A
C294        C295   1.401       .  A
C294        H299   1.084       .  S
C295       C1672   1.472       .  S
C295        C296   1.393       .  A
C296        C297   1.397       .  A
C296        H300   1.084       .  S
C297       C1762   1.488       .  S
C297        C298   1.410       .  A
C298        H301   1.083       .  S
C302       C1819   1.477       .  S
C302        C303   1.406       .  A
C302        C307   1.395       .  A
C303        C304   1.414       .  A
C303        H308   1.083       .  S
C304        C522   1.484       .  S
C304        C305   1.414       .  A
C305        C306   1.406       .  A
C305        H309   1.084       .  S
C306       C1729   1.480       .  S
C306        C307   1.395       .  A
C307        H310   1.085       .  S
C311        C774   1.492       .  S
C311        C312   1.417       .  A
C311        C316   1.415   1_455  A
C312        C313   1.411       .  A
C312        H317   1.083       .  S
C313       C1708   1.486       .  S
C313        C314   1.397       .  A
C314        C315   1.395   1_455  A
C314        H318   1.084       .  S
C315       C2320   1.479       .  S
C315        C316   1.407       .  A
C316        H319   1.083       .  S
C320        C794   1.497       .  S
C320        C321   1.421       .  A
C320        C325   1.415   1_565  A
C321        C322   1.413       .  A
C321        H326   1.083       .  S
C322       C1744   1.484       .  S
C322        C323   1.396       .  A
C323        C324   1.392   1_565  A
C323        H327   1.085       .  S
C324       C2053   1.473       .  S
C324        C325   1.401       .  A
C325        H328   1.083       .  S
C329        C783   1.502       .  S
C329        C330   1.419       .  A
C329        C334   1.421   1_554  A
C330        C331   1.407       .  A
C330        H335   1.083       .  S
C331       C2266   1.478       .  S
C331        C332   1.392       .  A
C332        C333   1.397   1_554  A
C332        H336   1.085       .  S
C333       C2107   1.484       .  S
C333        C334   1.409       .  A
C334        H337   1.083       .  S
C338       C2518   1.486       .  S
C338        C339   1.396       .  A
C338        C343   1.410       .  A
C339        C340   1.393       .  A
C339        H344   1.084       .  S
C340       C1801   1.480       .  S
C340        C341   1.404       .  A
C341        C342   1.417       .  A
C341        H345   1.083       .  S
C342        C492   1.493       .  S
C342        C343   1.419       .  A
C343        H346   1.083       .  S
C347        C697   1.500       .  S
C347        C348   1.420       .  A
C347        C352   1.420       .  A
C348        C349   1.409       .  A
C348        H353   1.083       .  S
C349       C1783   1.486       .  S
C349        C350   1.393       .  A
C350        C351   1.395       .  A
C350        H354   1.085       .  S
C351       C2503   1.484       .  S
C351        C352   1.410       .  A
C352        H355   1.083       .  S
C356        C666   1.483       .  S
C356        C357   1.417       .  A
C356        C361   1.409       .  A
C357        C358   1.410       .  A
C357        H362   1.083       .  S
C358       C2449   1.481       .  S
C358        C359   1.396       .  A
C359        C360   1.394       .  A
C359        H363   1.085       .  S
C360       C2395   1.472       .  S
C360        C361   1.399       .  A
C361        H364   1.084       .  S
C365       C2428   1.482       .  S
C365        C366   1.397       .  A
C365        C370   1.406       .  A
C366        C367   1.397       .  A
C366        H371   1.082       .  S
C367       C2161   1.487       .  S
C367        C368   1.408       .  A
C368        C369   1.414       .  A
C368        H372   1.083       .  S
C369        C661   1.485       .  S
C369        C370   1.414       .  A
C370        H373   1.083       .  S
C374       C2485   1.489       .  S
C374        C375   1.398       .  A
C374        C379   1.410       .  A
C375        C376   1.397       .  A
C375        H380   1.083       .  S
C376       C2143   1.483       .  S
C376        C377   1.406       .  A
C377        C378   1.414       .  A
C377        H381   1.083       .  S
C378        C652   1.490       .  S
C378        C379   1.418       .  A
C379        H382   1.083       .  S
C383        C722   1.481       .  S
C383        C384   1.412       .  A
C383        C388   1.413       .  A
C384        C385   1.403       .  A
C384        H389   1.084       .  S
C385       C2467   1.477       .  S
C385        C386   1.394       .  A
C386        C387   1.398       .  A
C386        H390   1.083       .  S
C387       C2374   1.484       .  S
C387        C388   1.408       .  A
C388        H391   1.083       .  S
C392       C2413   1.489       .  S
C392        C393   1.398       .  A
C392        C397   1.413       .  A
C393        C394   1.391       .  A
C393        H398   1.085       .  S
C394       C2305   1.473       .  S
C394        C395   1.401       .  A
C395        C396   1.413       .  A
C395        H399   1.084       .  S
C396        C481   1.487       .  S
C396        C397   1.419       .  A
C397        H400   1.083       .  S
O401        C417   1.272       .  A
O401       Zn407   1.998       .  S
C402        O418   1.281       .  A
C402        O415   1.272       .  A
C402       C1621   1.478       .  S
O403        C416   1.276       .  A
O403       Cd410   2.072       .  S
O404        C422   1.278       .  A
O404       Cd413   2.078       .  S
O405        C419   1.273       .  A
O405       Cd409   2.049       .  S
O406        C417   1.280       .  A
O406       Cd409   2.098       .  S
Zn407       O418   2.069       .  S
Zn407       O420   2.036       .  S
Zn407       O412   1.931       .  S
O408        C419   1.278       .  A
O408       Cd413   2.091       .  S
Cd409       O411   2.094       .  S
Cd409       O412   1.981       .  S
Cd410       O414   2.083       .  S
Cd410       O423   2.084       .  S
Cd410       O412   1.986       .  S
O411        C421   1.280       .  A
O412       Cd413   1.977       .  S
Cd413       O415   2.047       .  S
O414        C421   1.277       .  A
C416        O420   1.279       .  A
C416       C1657   1.475       .  S
C417       C1582   1.473       .  S
C419       C1639   1.471       .  S
C421       C1600   1.479       .  S
C422        O423   1.277       .  A
C422       C1567   1.476       .  S
O424        C440   1.278       .  A
O424       Zn430   2.029       .  S
C425        O441   1.281       .  A
C425        O438   1.272       .  A
C425       C1474   1.479       .  S
O426        C439   1.274       .  A
O426       Cd433   2.071       .  S
O427        C445   1.279       .  A
O427       Cd436   2.081       .  S
O428        C442   1.273       .  A
O428       Cd432   2.057       .  S
O429        C440   1.281       .  A
O429       Cd432   2.089       .  S
Zn430       O441   2.060       .  S
Zn430       O443   2.050       .  S
Zn430       O435   1.931       .  S
O431        C442   1.279       .  A
O431       Cd436   2.092       .  S
Cd432       O434   2.107       .  S
Cd432       O435   1.983       .  S
Cd433       O437   2.062       .  S
Cd433       O446   2.071       .  S
Cd433       O435   1.979       .  S
O434        C444   1.281       .  A
O435       Cd436   1.990       .  S
Cd436       O438   2.063       .  S
O437        C444   1.274       .  A
C439        O443   1.278       .  A
C439       C1459   1.473       .  S
C440       C1513   1.476       .  S
C442       C1492   1.473       .  S
C444       C1531   1.477       .  S
C445        O446   1.276       .  A
C445       C1546   1.472       .  S
C447        C448   1.412       .  A
C447        C452   1.421       .  A
C448        C449   1.402       .  A
C448        H453   1.084       .  S
C449       C1528   1.472       .  S
C449        C450   1.390       .  A
C450        C451   1.396       .  A
C450        H454   1.085       .  S
C451       C1438   1.488       .  S
C451        C452   1.415       .  A
C452        H455   1.083       .  S
O456        C472   1.274       .  A
O456       Zn462   2.011       .  S
C457        O473   1.281       .  A
C457        O470   1.272       .  A
C457       C1405   1.477       .  S
O458        C471   1.278       .  A
O458       Cd465   2.091       .  S
O459        C477   1.274       .  A
O459       Cd468   2.050       .  S
O460        C474   1.274       .  A
O460       Cd464   2.066       .  S
O461        C472   1.280       .  A
O461       Cd464   2.087       .  S
Zn462       O473   2.066       .  S
Zn462       O475   2.036       .  S
Zn462       O467   1.930       .  S
O463        C474   1.276       .  A
O463       Cd468   2.080       .  S
Cd464       O466   2.090       .  S
Cd464       O467   1.980       .  S
Cd465       O469   2.095       .  S
Cd465       O478   2.082       .  S
Cd465       O467   1.995       .  S
O466        C476   1.280       .  A
O467       Cd468   1.980       .  S
Cd468       O470   2.056       .  S
O469        C476   1.279       .  A
C471        O475   1.278       .  A
C471       C1366   1.479       .  S
C472       C1423   1.473       .  S
C474       C1384   1.473       .  S
C476       C1441   1.484       .  S
C477        O478   1.277       .  A
C477       C1348   1.467       .  S
C479       C1369   1.482       .  S
C479        C480   1.410       .  A
C479        C484   1.396       .  A
C480        C481   1.416       .  A
C480        H485   1.083       .  S
C481        C482   1.413       .  A
C482        C483   1.406       .  A
C482        H486   1.084       .  S
C483       C1333   1.483       .  S
C483        C484   1.395       .  A
C484        H487   1.084       .  S
C488       C1312   1.478       .  S
C488        C489   1.396       .  A
C488        C493   1.409       .  A
C489        C490   1.395       .  A
C489        H494   1.085       .  S
C490       C1294   1.478       .  S
C490        C491   1.405       .  A
C491        C492   1.414       .  A
C491        H495   1.084       .  S
C492        C493   1.415       .  A
C493        H496   1.083       .  S
O497        C513   1.274       .  A
O497       Zn503   2.015       .  S
C498        O514   1.281       .  A
C498        O511   1.274       .  A
C498       C1330   1.473       .  S
O499        C512   1.276       .  A
O499       Cd506   2.072       .  S
O500        C518   1.279       .  A
O500       Cd509   2.101       .  S
O501        C515   1.273       .  A
O501       Cd505   2.055       .  S
O502        C513   1.281       .  A
O502       Cd505   2.105       .  S
Zn503       O514   2.057       .  S
Zn503       O516   2.045       .  S
Zn503       O508   1.933       .  S
O504        C515   1.281       .  A
O504       Cd509   2.103       .  S
Cd505       O507   2.095       .  S
Cd505       O508   1.986       .  S
Cd506       O510   2.078       .  S
Cd506       O519   2.076       .  S
Cd506       O508   1.981       .  S
O507        C517   1.280       .  A
O508       Cd509   1.988       .  S
Cd509       O511   2.052       .  S
O510        C517   1.277       .  A
C512        O516   1.279       .  A
C512       C1222   1.478       .  S
C513       C1240   1.479       .  S
C515       C1315   1.476       .  S
C517       C1258   1.480       .  S
C518        O519   1.277       .  A
C518       C1276   1.483       .  S
C520       C1351   1.473       .  S
C520        C521   1.402       .  A
C520        C525   1.395       .  A
C521        C522   1.411       .  A
C521        H526   1.084       .  S
C522        C523   1.415       .  A
C523        C524   1.408       .  A
C523        H527   1.083       .  S
C524       C1564   1.478       .  S
C524        C525   1.396       .  A
C525        H528   1.085       .  S
O529        C545   1.277       .  A
O529       Zn535   2.032       .  S
C530        O546   1.282       .  A
C530        O543   1.272       .  A
C530       C1297   1.477       .  S
O531        C544   1.276       .  A
O531       Cd538   2.068       .  S
O532        C550   1.279       .  A
O532       Cd541   2.091       .  S
O533        C547   1.272       .  A
O533       Cd537   2.046       .  S
O534        C545   1.279       .  A
O534       Cd537   2.083       .  S
Zn535       O546   2.074       .  S
Zn535       O548   2.048       .  S
Zn535       O540   1.934       .  S
O536        C547   1.280       .  A
O536       Cd541   2.100       .  S
Cd537       O539   2.091       .  S
Cd537       O540   1.971       .  S
Cd538       O542   2.068       .  S
Cd538       O551   2.072       .  S
Cd538       O540   1.973       .  S
O539        C549   1.278       .  A
O540       Cd541   1.977       .  S
Cd541       O543   2.042       .  S
O542        C549   1.275       .  A
C544        O548   1.281       .  A
C544       C1186   1.477       .  S
C545       C1132   1.478       .  S
C547       C1171   1.473       .  S
C549       C1150   1.476       .  S
C550        O551   1.277       .  A
C550       C1207   1.475       .  S
C552       C1204   1.475       .  S
C552        C553   1.405       .  A
C552        C557   1.392       .  A
C553        C554   1.419       .  A
C553        H558   1.083       .  S
C554        C555   1.417   1_554  A
C555        C556   1.403       .  A
C555        H559   1.083       .  S
C556       C1117   1.471       .  S
C556        C557   1.392   1_556  A
C557        H560   1.086       .  S
O561        C577   1.277       .  A
O561       Zn567   2.035       .  S
C562        O578   1.281       .  A
C562        O575   1.274       .  A
C562       C1096   1.475       .  S
O563        C576   1.277       .  A
O563       Cd570   2.084       .  S
O564        C582   1.278       .  A
O564       Cd573   2.066       .  S
O565        C579   1.271       .  A
O565       Cd569   2.050       .  S
O566        C577   1.279       .  A
O566       Cd569   2.079       .  S
Zn567       O578   2.063       .  S
Zn567       O580   2.051       .  S
Zn567       O572   1.930       .  S
O568        C579   1.278       .  A
O568       Cd573   2.094       .  S
Cd569       O571   2.079       .  S
Cd569       O572   1.968       .  S
Cd570       O574   2.092       .  S
Cd570       O583   2.096       .  S
Cd570       O572   1.983       .  S
O571        C581   1.279       .  A
O572       Cd573   1.974       .  S
Cd573       O575   2.062       .  S
O574        C581   1.279       .  A
C576        O580   1.279       .  A
C576       C1042   1.474       .  S
C577       C1006   1.476       .  S
C579       C1060   1.473       .  S
C581       C1024   1.479       .  S
C582        O583   1.279       .  A
C582       C1081   1.477       .  S
C584        C988   1.476       .  S
C584        C585   1.403       .  A
C584        C589   1.392   1_565  A
C585        C586   1.416   1_565  A
C585        H590   1.083       .  S
C586        C587   1.418       .  A
C587        C588   1.409       .  A
C587        H591   1.083       .  S
C588       C1099   1.483       .  S
C588        C589   1.397       .  A
C589        H592   1.085       .  S
O593        C609   1.275       .  A
O593       Zn599   2.013       .  S
C594        O610   1.282       .  A
C594        O607   1.272       .  A
C594        C916   1.477       .  S
O595        C608   1.275       .  A
O595       Cd602   2.073       .  S
O596        C614   1.279       .  A
O596       Cd605   2.076       .  S
O597        C611   1.275       .  A
O597       Cd601   2.075       .  S
O598        C609   1.280       .  A
O598       Cd601   2.095       .  S
Zn599       O610   2.071       .  S
Zn599       O612   2.048       .  S
Zn599       O604   1.930       .  S
O600        C611   1.279       .  A
O600       Cd605   2.099       .  S
Cd601       O603   2.087       .  S
Cd601       O604   1.980       .  S
Cd602       O606   2.063       .  S
Cd602       O615   2.072       .  S
Cd602       O604   1.988       .  S
O603        C613   1.280       .  A
O604       Cd605   1.975       .  S
Cd605       O607   2.042       .  S
O606        C613   1.274       .  A
C608        O612   1.279       .  A
C608        C991   1.479       .  S
C609        C934   1.477       .  S
C611        C952   1.481       .  S
C613       C1114   1.472       .  S
C614        O615   1.276       .  A
C614        C970   1.470       .  S
O616        C632   1.274       .  A
O616       Zn622   2.014       .  S
C617        O633   1.282       .  A
C617        O630   1.272       .  A
C617        C865   1.480       .  S
O618        C631   1.276       .  A
O618       Cd625   2.078       .  S
O619        C637   1.279       .  A
O619       Cd628   2.088       .  S
O620        C634   1.277       .  A
O620       Cd624   2.085       .  S
O621        C632   1.281       .  A
O621       Cd624   2.103       .  S
Zn622       O633   2.078       .  S
Zn622       O635   2.047       .  S
Zn622       O627   1.940       .  S
O623        C634   1.280       .  A
O623       Cd628   2.098       .  S
Cd624       O626   2.102       .  S
Cd624       O627   1.997       .  S
Cd625       O629   2.073       .  S
Cd625       O638   2.071       .  S
Cd625       O627   1.984       .  S
O626        C636   1.280       .  A
O627       Cd628   1.981       .  S
Cd628       O630   2.045       .  S
O629        C636   1.275       .  A
C631        O635   1.280       .  A
C631        C880   1.480       .  S
C632        C898   1.477       .  S
C634        C808   1.481       .  S
C636        C844   1.475       .  S
C637        O638   1.274       .  A
C637        C829   1.474       .  S
C639        C640   1.414   1_455  A
C639        C644   1.416       .  A
C640        C641   1.404       .  A
C640        H645   1.083       .  S
C641        C973   1.475       .  S
C641        C642   1.394   1_655  A
C642        C643   1.395       .  A
C642        H646   1.084       .  S
C643        C901   1.484       .  S
C643        C644   1.408       .  A
C644        H647   1.083       .  S
C648        C883   1.482       .  S
C648        C649   1.394       .  A
C648        C653   1.410       .  A
C649        C650   1.392       .  A
C649        H654   1.086       .  S
C650       C1654   1.475       .  S
C650        C651   1.405       .  A
C651        C652   1.415       .  A
C651        H655   1.083       .  S
C652        C653   1.419       .  A
C653        H656   1.083       .  S
C657       C1618   1.482       .  S
C657        C658   1.396       .  A
C657        C662   1.408       .  A
C658        C659   1.396       .  A
C658        H663   1.084       .  S
C659        C862   1.479       .  S
C659        C660   1.406       .  A
C660        C661   1.413       .  A
C660        H664   1.083       .  S
C661        C662   1.414       .  A
C662        H665   1.083       .  S
C666        C667   1.414       .  A
C666        C671   1.415       .  A
C667        C668   1.406       .  A
C667        H672   1.083       .  S
C668       C1549   1.473       .  S
C668        C669   1.392       .  A
C669        C670   1.394       .  A
C669        H673   1.086       .  S
C670       C1078   1.475       .  S
C670        C671   1.403       .  A
C671        H674   1.084       .  S
C675        C676   1.414       .  A
C675        C680   1.416   1_455  A
C676        C677   1.406       .  A
C676        H681   1.083       .  S
C677       C1603   1.477       .  S
C677        C678   1.394       .  A
C678        C679   1.395   1_455  A
C678        H682   1.086       .  S
C679       C1027   1.480       .  S
C679        C680   1.408       .  A
C680        H683   1.083       .  S
C684        C685   1.413   1_655  A
C684        C689   1.418       .  A
C685        C686   1.404       .  A
C685        H690   1.084       .  S
C686       C1585   1.478       .  S
C686        C687   1.394   1_455  A
C687        C688   1.396       .  A
C687        H691   1.085       .  S
C688       C1009   1.484       .  S
C688        C689   1.413       .  A
C689        H692   1.083       .  S
C693       C1279   1.482       .  S
C693        C694   1.393       .  A
C693        C698   1.411       .  A
C694        C695   1.395       .  A
C694        H699   1.085       .  S
C695       C1189   1.482       .  S
C695        C696   1.408       .  A
C696        C697   1.419       .  A
C696        H700   1.083       .  S
C697        C698   1.419       .  A
C698        H701   1.083       .  S
C702       C1477   1.497       .  S
C702        C703   1.416       .  A
C702        C707   1.401   1_545  A
C703        C704   1.421   1_545  A
C703        H708   1.083       .  S
C704        C705   1.414       .  A
C705        C706   1.402       .  A
C705        H709   1.084       .  S
C706       C1153   1.478       .  S
C706        C707   1.392       .  A
C707        H710   1.082       .  S
C711        C712   1.419       .  A
C711        C716   1.419       .  A
C712        C713   1.407       .  A
C712        H717   1.083       .  S
C713       C1261   1.484       .  S
C713        C714   1.394       .  A
C714        C715   1.396       .  A
C714        H718   1.084       .  S
C715        C811   1.489   1_554  S
C715        C716   1.413       .  A
C716        H719   1.083   1_554  S
C720       C1495   1.480       .  S
C720        C721   1.405       .  A
C720        C725   1.396       .  A
C721        C722   1.412       .  A
C721        H726   1.084       .  S
C722        C723   1.412       .  A
C723        C724   1.405       .  A
C723        H727   1.083       .  S
C724       C1063   1.476       .  S
C724        C725   1.395       .  A
C725        H728   1.084       .  S
C729       C1402   1.488       .  S
C729        C730   1.394       .  A
C729        C734   1.414       .  A
C730        C731   1.389       .  A
C730        H735   1.085       .  S
C731       C1225   1.479       .  S
C731        C732   1.407       .  A
C732        C733   1.420       .  A
C732        H736   1.083       .  S
C733        C734   1.422       .  A
C734        H737   1.083       .  S
C738        C739   1.416   1_556  A
C738        C743   1.414       .  A
C739        C740   1.411       .  A
C739        H744   1.083       .  S
C740       C1243   1.489       .  S
C740        C741   1.397   1_554  A
C741        C742   1.395       .  A
C741        H745   1.083       .  S
C742        C826   1.479       .  S
C742        C743   1.406       .  A
C743        H746   1.083       .  S
C747        C748   1.419       .  A
C747        C752   1.416       .  A
C748        C749   1.413       .  A
C748        H753   1.083       .  S
C749       C1456   1.487       .  S
C749        C750   1.397       .  A
C750        C751   1.396       .  A
C750        H754   1.083       .  S
C751       C1135   1.488       .  S
C751        C752   1.408       .  A
C752        H755   1.083       .  S
C756        C757   1.410       .  A
C756        C761   1.412       .  A
C757        C758   1.405       .  A
C757        H762   1.083       .  S
C758       C1420   1.477       .  S
C758        C759   1.398       .  A
C759        C760   1.396       .  A
C759        H763   1.084       .  S
C760       C1510   1.479       .  S
C760        C761   1.404       .  A
C761        H764   1.084       .  S
C765        C766   1.412       .  A
C765        C770   1.414       .  A
C766        C767   1.406       .  A
C766        H771   1.084       .  S
C767       C1636   1.478       .  S
C767        C768   1.397       .  A
C768        C769   1.394       .  A
C768        H772   1.084       .  S
C769       C1387   1.477       .  S
C769        C770   1.405       .  A
C770        H773   1.083       .  S
C774        C775   1.418       .  A
C774        C779   1.415       .  A
C775        C776   1.411       .  A
C775        H780   1.083       .  S
C776        C847   1.491       .  S
C776        C777   1.399       .  A
C777        C778   1.395       .  A
C777        H781   1.083       .  S
C778        C955   1.484       .  S
C778        C779   1.407       .  A
C779        H782   1.083       .  S
C783        C784   1.420       .  A
C783        C788   1.418       .  A
C784        C785   1.409       .  A
C784        H789   1.083       .  S
C785        C937   1.483   1_554  S
C785        C786   1.394       .  A
C786        C787   1.396       .  A
C786        H790   1.084       .  S
C787       C1168   1.482       .  S
C787        C788   1.407       .  A
C788        H791   1.083       .  S
C792        C919   1.481       .  S
C792        C793   1.405       .  A
C792        C797   1.395       .  A
C793        C794   1.417       .  A
C793        H798   1.084       .  S
C794        C795   1.417   1_565  A
C795        C796   1.410       .  A
C795        H799   1.083       .  S
C796       C1045   1.483       .  S
C796        C797   1.396   1_545  A
C797        H800   1.084       .  S
C801        C806   1.383       .  A
C801        C802   1.411       .  A
C801        N807   1.347       .  A
C802        C803   1.409       .  A
C802        H813   1.082       .  S
C803        C812   1.391       .  A
C803        C804   1.383       .  A
C804        C805   1.405       .  A
C804        N810   1.340       .  A
C805        C806   1.401       .  A
C805        H814   1.083       .  S
C806        C809   1.381       .  A
N807        C808   1.359       .  A
N807        H817   1.044       .  S
C808        C809   1.395       .  A
C809        H815   1.082       .  S
N810        C811   1.359       .  A
N810        H818   1.045       .  S
C811        C812   1.400       .  A
C812        H816   1.082       .  S
C819        C824   1.384       .  A
C819        C820   1.402       .  A
C819        N825   1.339       .  A
C820        C821   1.399       .  A
C820        H831   1.083       .  S
C821        C830   1.377       .  A
C821        C822   1.383       .  A
C822        C823   1.409       .  A
C822        N828   1.348       .  A
C823        C824   1.409       .  A
C823        H832   1.082       .  S
C824        C827   1.388       .  A
N825        C826   1.356       .  A
N825        H835   1.045       .  S
C826        C827   1.399       .  A
C827        H833   1.082       .  S
N828        C829   1.358       .  A
N828        H836   1.045       .  S
C829        C830   1.394       .  A
C830        H834   1.083       .  S
C837        C842   1.385       .  A
C837        C838   1.400       .  A
C837        N843   1.345       .  A
C838        C839   1.402   1_556  A
C838        H849   1.083       .  S
C839        C848   1.371       .  A
C839        C840   1.384       .  A
C840        C841   1.409       .  A
C840        N846   1.352       .  A
C841        C842   1.410   1_554  A
C841        H850   1.082       .  S
C842        C845   1.382       .  A
N843        C844   1.354       .  A
N843        H853   1.045       .  S
C844        C845   1.398       .  A
C845        H851   1.082       .  S
N846        C847   1.359       .  A
N846        H854   1.044       .  S
C847        C848   1.400       .  A
C848        H852   1.083   1_455  S
C855        C860   1.385       .  A
C855        C856   1.403       .  A
C855        N861   1.347       .  A
C856        C857   1.404       .  A
C856        H867   1.082       .  S
C857        C866   1.374       .  A
C857        C858   1.384       .  A
C858        C859   1.404       .  A
C858        N864   1.350       .  A
C859        C860   1.407       .  A
C859        H868   1.082       .  S
C860        C863   1.375       .  A
N861        C862   1.355       .  A
N861        H871   1.045       .  S
C862        C863   1.400       .  A
C863        H869   1.083       .  S
N864        C865   1.357       .  A
N864        H872   1.044       .  S
C865        C866   1.397       .  A
C866        H870   1.083       .  S
C873        C878   1.383       .  A
C873        C874   1.413   1_455  A
C873        N879   1.349       .  A
C874        C875   1.411       .  A
C874        H885   1.082       .  S
C875        C884   1.391       .  A
C875        C876   1.383       .  A
C876        C877   1.401   1_655  A
C876        N882   1.338       .  A
C877        C878   1.398       .  A
C877        H886   1.083       .  S
C878        C881   1.376       .  A
N879        C880   1.361       .  A
N879        H889   1.044       .  S
C880        C881   1.394       .  A
C881        H887   1.082       .  S
N882        C883   1.356       .  A
N882        H890   1.045       .  S
C883        C884   1.401       .  A
C884        H888   1.082       .  S
C891        C896   1.383       .  A
C891        C892   1.408       .  A
C891        N897   1.344       .  A
C892        C893   1.405       .  A
C892        H903   1.082       .  S
C893        C902   1.386       .  A
C893        C894   1.383       .  A
C894        C895   1.405       .  A
C894        N900   1.339       .  A
C895        C896   1.401       .  A
C895        H904   1.082       .  S
C896        C899   1.382       .  A
N897        C898   1.358       .  A
N897        H907   1.045       .  S
C898        C899   1.395       .  A
C899        H905   1.082       .  S
N900        C901   1.359       .  A
N900        H908   1.045       .  S
C901        C902   1.397       .  A
C902        H906   1.082       .  S
C909        C914   1.384   1_655  A
C909        C910   1.403   1_655  A
C909        N915   1.349       .  A
C910        C911   1.405       .  A
C910        H921   1.082   1_465  S
C911        C920   1.374       .  A
C911        C912   1.385       .  A
C912        C913   1.404       .  A
C912        N918   1.348       .  A
C913        C914   1.405       .  A
C913        H922   1.082       .  S
C914        C917   1.374   1_455  A
N915        C916   1.356       .  A
N915        H925   1.044       .  S
C916        C917   1.398       .  A
C917        H923   1.083       .  S
N918        C919   1.356       .  A
N918        H926   1.045       .  S
C919        C920   1.398       .  A
C920        H924   1.083   1_565  S
C927        C932   1.383   1_545  A
C927        C928   1.407       .  A
C927        N933   1.344   1_545  A
C928        C929   1.405       .  A
C928        H939   1.082       .  S
C929        C938   1.386       .  A
C929        C930   1.384       .  A
C930        C931   1.406   1_556  A
C930        N936   1.342   1_556  A
C931        C932   1.402   1_544  A
C931        H940   1.082   1_545  S
C932        C935   1.383       .  A
N933        C934   1.358       .  A
N933        H943   1.045       .  S
C934        C935   1.396       .  A
C935        H941   1.082       .  S
N936        C937   1.359   1_554  A
N936        H944   1.045       .  S
C937        C938   1.397       .  A
C938        H942   1.082       .  S
C945        C950   1.383   1_554  A
C945        C946   1.407       .  A
C945        N951   1.345   1_554  A
C946        C947   1.406       .  A
C946        H957   1.082       .  S
C947        C956   1.386       .  A
C947        C948   1.384       .  A
C948        C949   1.407       .  A
C948        N954   1.342   1_655  A
C949        C950   1.403   1_554  A
C949        H958   1.082   1_654  S
C950        C953   1.384       .  A
N951        C952   1.358       .  A
N951        H961   1.044   1_556  S
C952        C953   1.397       .  A
C953        H959   1.082       .  S
N954        C955   1.359       .  A
N954        H962   1.045       .  S
C955        C956   1.398   1_455  A
C956        H960   1.082       .  S
C963        C968   1.383       .  A
C963        C964   1.410       .  A
C963        N969   1.349       .  A
C964        C965   1.410       .  A
C964        H975   1.082       .  S
C965        C974   1.388       .  A
C965        C966   1.384       .  A
C966        C967   1.399       .  A
C966        N972   1.337       .  A
C967        C968   1.396       .  A
C967        H976   1.083       .  S
C968        C971   1.372       .  A
N969        C970   1.359       .  A
N969        H979   1.045       .  S
C970        C971   1.391       .  A
C971        H977   1.083       .  S
N972        C973   1.355       .  A
N972        H980   1.045       .  S
C973        C974   1.400       .  A
C974        H978   1.082       .  S
C981        C986   1.384       .  A
C981        C982   1.404       .  A
C981        N987   1.342       .  A
C982        C983   1.401       .  A
C982        H993   1.082       .  S
C983        C992   1.378       .  A
C983        C984   1.383       .  A
C984        C985   1.408       .  A
C984        N990   1.347       .  A
C985        C986   1.407       .  A
C985        H994   1.082       .  S
C986        C989   1.384       .  A
N987        C988   1.357       .  A
N987        H997   1.045   1_565  S
C988        C989   1.398       .  A
C989        H995   1.082       .  S
N990        C991   1.359       .  A
N990        H998   1.045       .  S
C991        C992   1.395       .  A
C992        H996   1.082       .  S
C999       C1004   1.383       .  A
C999       C1000   1.409       .  A
C999       N1005   1.347       .  A
C1000      C1001   1.408       .  A
C1000      H1011   1.082       .  S
C1001      C1010   1.388       .  A
C1001      C1002   1.383       .  A
C1002      C1003   1.404       .  A
C1002      N1008   1.341       .  A
C1003      C1004   1.401       .  A
C1003      H1012   1.083       .  S
C1004      C1007   1.379       .  A
N1005      C1006   1.358       .  A
N1005      H1015   1.045       .  S
C1006      C1007   1.395       .  A
C1007      H1013   1.082       .  S
N1008      C1009   1.358       .  A
N1008      H1016   1.046       .  S
C1009      C1010   1.399       .  A
C1010      H1014   1.082       .  S
C1017      C1022   1.383       .  A
C1017      C1018   1.412       .  A
C1017      N1023   1.350       .  A
C1018      C1019   1.411       .  A
C1018      H1029   1.082       .  S
C1019      C1028   1.389       .  A
C1019      C1020   1.384       .  A
C1020      C1021   1.401       .  A
C1020      N1026   1.339       .  A
C1021      C1022   1.399       .  A
C1021      H1030   1.083       .  S
C1022      C1025   1.375       .  A
N1023      C1024   1.360       .  A
N1023      H1033   1.045       .  S
C1024      C1025   1.394       .  A
C1025      H1031   1.083       .  S
N1026      C1027   1.355       .  A
N1026      H1034   1.045       .  S
C1027      C1028   1.400       .  A
C1028      H1032   1.082       .  S
C1035      C1040   1.385   1_655  A
C1035      C1036   1.403       .  A
C1035      N1041   1.347       .  A
C1036      C1037   1.404   1_655  A
C1036      H1047   1.082   1_545  S
C1037      C1046   1.374   1_545  A
C1037      C1038   1.384       .  A
C1038      C1039   1.408       .  A
C1038      N1044   1.350       .  A
C1039      C1040   1.409       .  A
C1039      H1048   1.082       .  S
C1040      C1043   1.382   1_455  A
N1041      C1042   1.355       .  A
N1041      H1051   1.045       .  S
C1042      C1043   1.397       .  A
C1043      H1049   1.082       .  S
N1044      C1045   1.358       .  A
N1044      H1052   1.045       .  S
C1045      C1046   1.398   1_545  A
C1046      H1050   1.083       .  S
C1053      C1058   1.383       .  A
C1053      C1054   1.406       .  A
C1053      N1059   1.341       .  A
C1054      C1055   1.403       .  A
C1054      H1065   1.082       .  S
C1055      C1064   1.385       .  A
C1055      C1056   1.384       .  A
C1056      C1057   1.404       .  A
C1056      N1062   1.338       .  A
C1057      C1058   1.400       .  A
C1057      H1066   1.082       .  S
C1058      C1061   1.382       .  A
N1059      C1060   1.357       .  A
N1059      H1069   1.045       .  S
C1060      C1061   1.395       .  A
C1061      H1067   1.082       .  S
N1062      C1063   1.357       .  A
N1062      H1070   1.045       .  S
C1063      C1064   1.396       .  A
C1064      H1068   1.082       .  S
C1071      C1076   1.384       .  A
C1071      C1072   1.397   1_565  A
C1071      N1077   1.336       .  A
C1072      C1073   1.395       .  A
C1072      H1083   1.083       .  S
C1073      C1082   1.369       .  A
C1073      C1074   1.382       .  A
C1074      C1075   1.412   1_545  A
C1074      N1080   1.351       .  A
C1075      C1076   1.412       .  A
C1075      H1084   1.082       .  S
C1076      C1079   1.389       .  A
N1077      C1078   1.353       .  A
N1077      H1087   1.045       .  S
C1078      C1079   1.401       .  A
C1079      H1085   1.082       .  S
N1080      C1081   1.361       .  A
N1080      H1088   1.045       .  S
C1081      C1082   1.393       .  A
C1082      H1086   1.083       .  S
C1089      C1094   1.384       .  A
C1089      C1090   1.401       .  A
C1089      N1095   1.345       .  A
C1090      C1091   1.402       .  A
C1090      H1101   1.082       .  S
C1091      C1100   1.370       .  A
C1091      C1092   1.384       .  A
C1092      C1093   1.407       .  A
C1092      N1098   1.350       .  A
C1093      C1094   1.408       .  A
C1093      H1102   1.082       .  S
C1094      C1097   1.380       .  A
N1095      C1096   1.354       .  A
N1095      H1105   1.045       .  S
C1096      C1097   1.399       .  A
C1097      H1103   1.082       .  S
N1098      C1099   1.358       .  A
N1098      H1106   1.045       .  S
C1099      C1100   1.398       .  A
C1100      H1104   1.083   1_545  S
C1107      C1112   1.383       .  A
C1107      C1108   1.408       .  A
C1107      N1113   1.346       .  A
C1108      C1109   1.408       .  A
C1108      H1119   1.082       .  S
C1109      C1118   1.385       .  A
C1109      C1110   1.384       .  A
C1110      C1111   1.399       .  A
C1110      N1116   1.338       .  A
C1111      C1112   1.396       .  A
C1111      H1120   1.083       .  S
C1112      C1115   1.373       .  A
N1113      C1114   1.359       .  A
N1113      H1123   1.045       .  S
C1114      C1115   1.392       .  A
C1115      H1121   1.082       .  S
N1116      C1117   1.354       .  A
N1116      H1124   1.045   1_556  S
C1117      C1118   1.398       .  A
C1118      H1122   1.082       .  S
C1125      C1130   1.384       .  A
C1125      C1126   1.402       .  A
C1125      N1131   1.345       .  A
C1126      C1127   1.403   1_565  A
C1126      H1137   1.083   1_565  S
C1127      C1136   1.374       .  A
C1127      C1128   1.383   1_545  A
C1128      C1129   1.407       .  A
C1128      N1134   1.349       .  A
C1129      C1130   1.408       .  A
C1129      H1138   1.082       .  S
C1130      C1133   1.382       .  A
N1131      C1132   1.355       .  A
N1131      H1141   1.045       .  S
C1132      C1133   1.399       .  A
C1133      H1139   1.082       .  S
N1134      C1135   1.358   1_565  A
N1134      H1142   1.045       .  S
C1135      C1136   1.400       .  A
C1136      H1140   1.082       .  S
C1143      C1148   1.383       .  A
C1143      C1144   1.407       .  A
C1143      N1149   1.346       .  A
C1144      C1145   1.407       .  A
C1144      H1155   1.082       .  S
C1145      C1154   1.384       .  A
C1145      C1146   1.384       .  A
C1146      C1147   1.405       .  A
C1146      N1152   1.343       .  A
C1147      C1148   1.402       .  A
C1147      H1156   1.082       .  S
C1148      C1151   1.380       .  A
N1149      C1150   1.357       .  A
N1149      H1159   1.044       .  S
C1150      C1151   1.396       .  A
C1151      H1157   1.082       .  S
N1152      C1153   1.357       .  A
N1152      H1160   1.045       .  S
C1153      C1154   1.398       .  A
C1154      H1158   1.082       .  S
C1161      C1166   1.385       .  A
C1161      C1162   1.404       .  A
C1161      N1167   1.349       .  A
C1162      C1163   1.405       .  A
C1162      H1173   1.082       .  S
C1163      C1172   1.375   1_545  A
C1163      C1164   1.385   1_545  A
C1164      C1165   1.400   1_565  A
C1164      N1170   1.346       .  A
C1165      C1166   1.403       .  A
C1165      H1174   1.083   1_544  S
C1166      C1169   1.371   1_554  A
N1167      C1168   1.356       .  A
N1167      H1177   1.045       .  S
C1168      C1169   1.398   1_554  A
C1169      H1175   1.083       .  S
N1170      C1171   1.354       .  A
N1170      H1178   1.044       .  S
C1171      C1172   1.397       .  A
C1172      H1176   1.083   1_565  S
C1179      C1184   1.383       .  A
C1179      C1180   1.409       .  A
C1179      N1185   1.346       .  A
C1180      C1181   1.408       .  A
C1180      H1191   1.082       .  S
C1181      C1190   1.387       .  A
C1181      C1182   1.384       .  A
C1182      C1183   1.403       .  A
C1182      N1188   1.340       .  A
C1183      C1184   1.400       .  A
C1183      H1192   1.082       .  S
C1184      C1187   1.379       .  A
N1185      C1186   1.359       .  A
N1185      H1195   1.045       .  S
C1186      C1187   1.395       .  A
C1187      H1193   1.082       .  S
N1188      C1189   1.357       .  A
N1188      H1196   1.045       .  S
C1189      C1190   1.399       .  A
C1190      H1194   1.082       .  S
C1197      C1202   1.384       .  A
C1197      C1198   1.407       .  A
C1197      N1203   1.347       .  A
C1198      C1199   1.406       .  A
C1198      H1209   1.082       .  S
C1199      C1208   1.382       .  A
C1199      C1200   1.383       .  A
C1200      C1201   1.402       .  A
C1200      N1206   1.344       .  A
C1201      C1202   1.403       .  A
C1201      H1210   1.082       .  S
C1202      C1205   1.375       .  A
N1203      C1204   1.357       .  A
N1203      H1213   1.045       .  S
C1204      C1205   1.397       .  A
C1205      H1211   1.083   1_554  S
N1206      C1207   1.356       .  A
N1206      H1214   1.045       .  S
C1207      C1208   1.398       .  A
C1208      H1212   1.082       .  S
C1215      C1220   1.383       .  A
C1215      C1216   1.408       .  A
C1215      N1221   1.346       .  A
C1216      C1217   1.407       .  A
C1216      H1227   1.082       .  S
C1217      C1226   1.386       .  A
C1217      C1218   1.383       .  A
C1218      C1219   1.406       .  A
C1218      N1224   1.342       .  A
C1219      C1220   1.403       .  A
C1219      H1228   1.082       .  S
C1220      C1223   1.381       .  A
N1221      C1222   1.358       .  A
N1221      H1231   1.044       .  S
C1222      C1223   1.397       .  A
C1223      H1229   1.083       .  S
N1224      C1225   1.359       .  A
N1224      H1232   1.045       .  S
C1225      C1226   1.399       .  A
C1226      H1230   1.082       .  S
C1233      C1238   1.383       .  A
C1233      C1234   1.410       .  A
C1233      N1239   1.345       .  A
C1234      C1235   1.407       .  A
C1234      H1245   1.082       .  S
C1235      C1244   1.389       .  A
C1235      C1236   1.383       .  A
C1236      C1237   1.404       .  A
C1236      N1242   1.339       .  A
C1237      C1238   1.401       .  A
C1237      H1246   1.082   1_554  S
C1238      C1241   1.382       .  A
N1239      C1240   1.359       .  A
N1239      H1249   1.045       .  S
C1240      C1241   1.395       .  A
C1241      H1247   1.082       .  S
N1242      C1243   1.359       .  A
N1242      H1250   1.045   1_554  S
C1243      C1244   1.399       .  A
C1244      H1248   1.082       .  S
C1251      C1256   1.383       .  A
C1251      C1252   1.403       .  A
C1251      N1257   1.345       .  A
C1252      C1253   1.404       .  A
C1252      H1263   1.083       .  S
C1253      C1262   1.375       .  A
C1253      C1254   1.383       .  A
C1254      C1255   1.410       .  A
C1254      N1260   1.351       .  A
C1255      C1256   1.409       .  A
C1255      H1264   1.082       .  S
C1256      C1259   1.384       .  A
N1257      C1258   1.356       .  A
N1257      H1267   1.045       .  S
C1258      C1259   1.399       .  A
C1259      H1265   1.082       .  S
N1260      C1261   1.359       .  A
N1260      H1268   1.045       .  S
C1261      C1262   1.399       .  A
C1262      H1266   1.083       .  S
C1269      C1274   1.383       .  A
C1269      C1270   1.407       .  A
C1269      N1275   1.349       .  A
C1270      C1271   1.408       .  A
C1270      H1281   1.082       .  S
C1271      C1280   1.380       .  A
C1271      C1272   1.383       .  A
C1272      C1273   1.406       .  A
C1272      N1278   1.348       .  A
C1273      C1274   1.406       .  A
C1273      H1282   1.082       .  S
C1274      C1277   1.380       .  A
N1275      C1276   1.359       .  A
N1275      H1285   1.045       .  S
C1276      C1277   1.397       .  A
C1277      H1283   1.082       .  S
N1278      C1279   1.357       .  A
N1278      H1286   1.045       .  S
C1279      C1280   1.401       .  A
C1280      H1284   1.083       .  S
C1287      C1292   1.385       .  A
C1287      C1288   1.403       .  A
C1287      N1293   1.347       .  A
C1288      C1289   1.404       .  A
C1288      H1299   1.083       .  S
C1289      C1298   1.374   1_556  A
C1289      C1290   1.384   1_556  A
C1290      C1291   1.403   1_554  A
C1290      N1296   1.349       .  A
C1291      C1292   1.405       .  A
C1291      H1300   1.082   1_556  S
C1292      C1295   1.376       .  A
N1293      C1294   1.355       .  A
N1293      H1303   1.045       .  S
C1294      C1295   1.398       .  A
C1295      H1301   1.083       .  S
N1296      C1297   1.356       .  A
N1296      H1304   1.044       .  S
C1297      C1298   1.397       .  A
C1298      H1302   1.083       .  S
C1305      C1310   1.384       .  A
C1305      C1306   1.405       .  A
C1305      N1311   1.341       .  A
C1306      C1307   1.402   1_556  A
C1306      H1317   1.082   1_556  S
C1307      C1316   1.382       .  A
C1307      C1308   1.383   1_554  A
C1308      C1309   1.406       .  A
C1308      N1314   1.343   1_556  A
C1309      C1310   1.404       .  A
C1309      H1318   1.082       .  S
C1310      C1313   1.384       .  A
N1311      C1312   1.358       .  A
N1311      H1321   1.045       .  S
C1312      C1313   1.396       .  A
C1313      H1319   1.082       .  S
N1314      C1315   1.358       .  A
N1314      H1322   1.046       .  S
C1315      C1316   1.395       .  A
C1316      H1320   1.082       .  S
C1323      C1328   1.384       .  A
C1323      C1324   1.407       .  A
C1323      N1329   1.341       .  A
C1324      C1325   1.404       .  A
C1324      H1335   1.082       .  S
C1325      C1334   1.385       .  A
C1325      C1326   1.383       .  A
C1326      C1327   1.404       .  A
C1326      N1332   1.338       .  A
C1327      C1328   1.400       .  A
C1327      H1336   1.082       .  S
C1328      C1331   1.382       .  A
N1329      C1330   1.358       .  A
N1329      H1339   1.045       .  S
C1330      C1331   1.394       .  A
C1331      H1337   1.082       .  S
N1332      C1333   1.358       .  A
N1332      H1340   1.045       .  S
C1333      C1334   1.397       .  A
C1334      H1338   1.082       .  S
C1341      C1346   1.384       .  A
C1341      C1342   1.398       .  A
C1341      N1347   1.337       .  A
C1342      C1343   1.397       .  A
C1342      H1353   1.083       .  S
C1343      C1352   1.371       .  A
C1343      C1344   1.384       .  A
C1344      C1345   1.408       .  A
C1344      N1350   1.347       .  A
C1345      C1346   1.406       .  A
C1345      H1354   1.082       .  S
C1346      C1349   1.384       .  A
N1347      C1348   1.354       .  A
N1347      H1357   1.045       .  S
C1348      C1349   1.398       .  A
C1349      H1355   1.082       .  S
N1350      C1351   1.357       .  A
N1350      H1358   1.044       .  S
C1351      C1352   1.394       .  A
C1352      H1356   1.083       .  S
C1359      C1364   1.383       .  A
C1359      C1360   1.401       .  A
C1359      N1365   1.342       .  A
C1360      C1361   1.401       .  A
C1360      H1371   1.083       .  S
C1361      C1370   1.373       .  A
C1361      C1362   1.383       .  A
C1362      C1363   1.411       .  A
C1362      N1368   1.351       .  A
C1363      C1364   1.411       .  A
C1363      H1372   1.082       .  S
C1364      C1367   1.388       .  A
N1365      C1366   1.355       .  A
N1365      H1375   1.045       .  S
C1366      C1367   1.400       .  A
C1367      H1373   1.082       .  S
N1368      C1369   1.359       .  A
N1368      H1376   1.044       .  S
C1369      C1370   1.398       .  A
C1370      H1374   1.083       .  S
C1377      C1382   1.384       .  A
C1377      C1378   1.404       .  A
C1377      N1383   1.342       .  A
C1378      C1379   1.402       .  A
C1378      H1389   1.082       .  S
C1379      C1388   1.381       .  A
C1379      C1380   1.384       .  A
C1380      C1381   1.405       .  A
C1380      N1386   1.341       .  A
C1381      C1382   1.402       .  A
C1381      H1390   1.083       .  S
C1382      C1385   1.381       .  A
N1383      C1384   1.356       .  A
N1383      H1393   1.046       .  S
C1384      C1385   1.396       .  A
C1385      H1391   1.082       .  S
N1386      C1387   1.358       .  A
N1386      H1394   1.045       .  S
C1387      C1388   1.394       .  A
C1388      H1392   1.082       .  S
C1395      C1400   1.383       .  A
C1395      C1396   1.404       .  A
C1395      N1401   1.338       .  A
C1396      C1397   1.399       .  A
C1396      H1407   1.082       .  S
C1397      C1406   1.382       .  A
C1397      C1398   1.383       .  A
C1398      C1399   1.412       .  A
C1398      N1404   1.345       .  A
C1399      C1400   1.408       .  A
C1399      H1408   1.082       .  S
C1400      C1403   1.392       .  A
N1401      C1402   1.359       .  A
N1401      H1411   1.043       .  S
C1402      C1403   1.400       .  A
C1403      H1409   1.082       .  S
N1404      C1405   1.359       .  A
N1404      H1412   1.046       .  S
C1405      C1406   1.394       .  A
C1406      H1410   1.082       .  S
C1413      C1418   1.384       .  A
C1413      C1414   1.402       .  A
C1413      N1419   1.338       .  A
C1414      C1415   1.398       .  A
C1414      H1425   1.082       .  S
C1415      C1424   1.378       .  A
C1415      C1416   1.384       .  A
C1416      C1417   1.408       .  A
C1416      N1422   1.344       .  A
C1417      C1418   1.406       .  A
C1417      H1426   1.082       .  S
C1418      C1421   1.386       .  A
N1419      C1420   1.355       .  A
N1419      H1429   1.045       .  S
C1420      C1421   1.398       .  A
C1421      H1427   1.082       .  S
N1422      C1423   1.358       .  A
N1422      H1430   1.045       .  S
C1423      C1424   1.393       .  A
C1424      H1428   1.082       .  S
C1431      C1436   1.383       .  A
C1431      C1432   1.403       .  A
C1431      N1437   1.339       .  A
C1432      C1433   1.400       .  A
C1432      H1443   1.083       .  S
C1433      C1442   1.377       .  A
C1433      C1434   1.382       .  A
C1434      C1435   1.413       .  A
C1434      N1440   1.350       .  A
C1435      C1436   1.412       .  A
C1435      H1444   1.082       .  S
C1436      C1439   1.392       .  A
N1437      C1438   1.358       .  A
N1437      H1447   1.045       .  S
C1438      C1439   1.402       .  A
C1439      H1445   1.082       .  S
N1440      C1441   1.361       .  A
N1440      H1448   1.045       .  S
C1441      C1442   1.395       .  A
C1442      H1446   1.082       .  S
C1449      C1454   1.383       .  A
C1449      C1450   1.404       .  A
C1449      N1455   1.339       .  A
C1450      C1451   1.400       .  A
C1450      H1461   1.083       .  S
C1451      C1460   1.381       .  A
C1451      C1452   1.383       .  A
C1452      C1453   1.411       .  A
C1452      N1458   1.347       .  A
C1453      C1454   1.409       .  A
C1453      H1462   1.082       .  S
C1454      C1457   1.391       .  A
N1455      C1456   1.358       .  A
N1455      H1465   1.045       .  S
C1456      C1457   1.400       .  A
C1457      H1463   1.082       .  S
N1458      C1459   1.358       .  A
N1458      H1466   1.045       .  S
C1459      C1460   1.393       .  A
C1460      H1464   1.082       .  S
C1467      C1472   1.383       .  A
C1467      C1468   1.414       .  A
C1467      N1473   1.348       .  A
C1468      C1469   1.412       .  A
C1468      H1479   1.082       .  S
C1469      C1478   1.394       .  A
C1469      C1470   1.382       .  A
C1470      C1471   1.401       .  A
C1470      N1476   1.336       .  A
C1471      C1472   1.397       .  A
C1471      H1480   1.083       .  S
C1472      C1475   1.378       .  A
N1473      C1474   1.362       .  A
N1473      H1483   1.045       .  S
C1474      C1475   1.392       .  A
C1475      H1481   1.082       .  S
N1476      C1477   1.359       .  A
N1476      H1484   1.044   1_545  S
C1477      C1478   1.404       .  A
C1478      H1482   1.082       .  S
C1485      C1490   1.384       .  A
C1485      C1486   1.401       .  A
C1485      N1491   1.345       .  A
C1486      C1487   1.403       .  A
C1486      H1497   1.083       .  S
C1487      C1496   1.373       .  A
C1487      C1488   1.385       .  A
C1488      C1489   1.404       .  A
C1488      N1494   1.347       .  A
C1489      C1490   1.404       .  A
C1489      H1498   1.082       .  S
C1490      C1493   1.377       .  A
N1491      C1492   1.354       .  A
N1491      H1501   1.044       .  S
C1492      C1493   1.397       .  A
C1493      H1499   1.083       .  S
N1494      C1495   1.356       .  A
N1494      H1502   1.044       .  S
C1495      C1496   1.399       .  A
C1496      H1500   1.083       .  S
C1503      C1508   1.384       .  A
C1503      C1504   1.403       .  A
C1503      N1509   1.340       .  A
C1504      C1505   1.400       .  A
C1504      H1515   1.082       .  S
C1505      C1514   1.379       .  A
C1505      C1506   1.384       .  A
C1506      C1507   1.407       .  A
C1506      N1512   1.345       .  A
C1507      C1508   1.406       .  A
C1507      H1516   1.082       .  S
C1508      C1511   1.385       .  A
N1509      C1510   1.356       .  A
N1509      H1519   1.045       .  S
C1510      C1511   1.397       .  A
C1511      H1517   1.082       .  S
N1512      C1513   1.358       .  A
N1512      H1520   1.045       .  S
C1513      C1514   1.395       .  A
C1514      H1518   1.082       .  S
C1521      C1526   1.383       .  A
C1521      C1522   1.404       .  A
C1521      N1527   1.342       .  A
C1522      C1523   1.402       .  A
C1522      H1533   1.082       .  S
C1523      C1532   1.381       .  A
C1523      C1524   1.383       .  A
C1524      C1525   1.408       .  A
C1524      N1530   1.345       .  A
C1525      C1526   1.407       .  A
C1525      H1534   1.082       .  S
C1526      C1529   1.384       .  A
N1527      C1528   1.356       .  A
N1527      H1537   1.045       .  S
C1528      C1529   1.399       .  A
C1529      H1535   1.083       .  S
N1530      C1531   1.358       .  A
N1530      H1538   1.045       .  S
C1531      C1532   1.395       .  A
C1532      H1536   1.082       .  S
C1539      C1544   1.383       .  A
C1539      C1540   1.407       .  A
C1539      N1545   1.346       .  A
C1540      C1541   1.407   1_545  A
C1540      H1551   1.082   1_545  S
C1541      C1550   1.384       .  A
C1541      C1542   1.383       .  A
C1542      C1543   1.403   1_565  A
C1542      N1548   1.340       .  A
C1543      C1544   1.400       .  A
C1543      H1552   1.083       .  S
C1544      C1547   1.377       .  A
N1545      C1546   1.357       .  A
N1545      H1555   1.044       .  S
C1546      C1547   1.395       .  A
C1547      H1553   1.083       .  S
N1548      C1549   1.356       .  A
N1548      H1556   1.045       .  S
C1549      C1550   1.398       .  A
C1550      H1554   1.082       .  S
C1557      C1562   1.383       .  A
C1557      C1558   1.410       .  A
C1557      N1563   1.350       .  A
C1558      C1559   1.409       .  A
C1558      H1569   1.082       .  S
C1559      C1568   1.386       .  A
C1559      C1560   1.383       .  A
C1560      C1561   1.400       .  A
C1560      N1566   1.341       .  A
C1561      C1562   1.400       .  A
C1561      H1570   1.083       .  S
C1562      C1565   1.373       .  A
N1563      C1564   1.359       .  A
N1563      H1573   1.044       .  S
C1564      C1565   1.396       .  A
C1565      H1571   1.083       .  S
N1566      C1567   1.354       .  A
N1566      H1574   1.045       .  S
C1567      C1568   1.400       .  A
C1568      H1572   1.082       .  S
C1575      C1580   1.385       .  A
C1575      C1576   1.401       .  A
C1575      N1581   1.347       .  A
C1576      C1577   1.403       .  A
C1576      H1587   1.082       .  S
C1577      C1586   1.372       .  A
C1577      C1578   1.385       .  A
C1578      C1579   1.405       .  A
C1578      N1584   1.348       .  A
C1579      C1580   1.405       .  A
C1579      H1588   1.082       .  S
C1580      C1583   1.376       .  A
N1581      C1582   1.355       .  A
N1581      H1591   1.045       .  S
C1582      C1583   1.397       .  A
C1583      H1589   1.083       .  S
N1584      C1585   1.356       .  A
N1584      H1592   1.045       .  S
C1585      C1586   1.397       .  A
C1586      H1590   1.083       .  S
C1593      C1598   1.383       .  A
C1593      C1594   1.410       .  A
C1593      N1599   1.348       .  A
C1594      C1595   1.409       .  A
C1594      H1605   1.082       .  S
C1595      C1604   1.388       .  A
C1595      C1596   1.383       .  A
C1596      C1597   1.403       .  A
C1596      N1602   1.340       .  A
C1597      C1598   1.400       .  A
C1597      H1606   1.082       .  S
C1598      C1601   1.379       .  A
N1599      C1600   1.359       .  A
N1599      H1609   1.045       .  S
C1600      C1601   1.395       .  A
C1601      H1607   1.083       .  S
N1602      C1603   1.355       .  A
N1602      H1610   1.046       .  S
C1603      C1604   1.400       .  A
C1604      H1608   1.082       .  S
C1611      C1616   1.385       .  A
C1611      C1612   1.403       .  A
C1611      N1617   1.347       .  A
C1612      C1613   1.404       .  A
C1612      H1623   1.082       .  S
C1613      C1622   1.374       .  A
C1613      C1614   1.384       .  A
C1614      C1615   1.404       .  A
C1614      N1620   1.349       .  A
C1615      C1616   1.407       .  A
C1615      H1624   1.082       .  S
C1616      C1619   1.375       .  A
N1617      C1618   1.355       .  A
N1617      H1627   1.045       .  S
C1618      C1619   1.400       .  A
C1619      H1625   1.083       .  S
N1620      C1621   1.356       .  A
N1620      H1628   1.045       .  S
C1621      C1622   1.397       .  A
C1622      H1626   1.083       .  S
C1629      C1634   1.385       .  A
C1629      C1630   1.402       .  A
C1629      N1635   1.346       .  A
C1630      C1631   1.401       .  A
C1630      H1641   1.082       .  S
C1631      C1640   1.372       .  A
C1631      C1632   1.384       .  A
C1632      C1633   1.402       .  A
C1632      N1638   1.347       .  A
C1633      C1634   1.404       .  A
C1633      H1642   1.083       .  S
C1634      C1637   1.373       .  A
N1635      C1636   1.355       .  A
N1635      H1645   1.044       .  S
C1636      C1637   1.399       .  A
C1637      H1643   1.083       .  S
N1638      C1639   1.355       .  A
N1638      H1646   1.044       .  S
C1639      C1640   1.395       .  A
C1640      H1644   1.083       .  S
C1647      C1652   1.383       .  A
C1647      C1648   1.403   1_655  A
C1647      N1653   1.340       .  A
C1648      C1649   1.400       .  A
C1648      H1659   1.083       .  S
C1649      C1658   1.377       .  A
C1649      C1650   1.383       .  A
C1650      C1651   1.408   1_455  A
C1650      N1656   1.347       .  A
C1651      C1652   1.408       .  A
C1651      H1660   1.082       .  S
C1652      C1655   1.385       .  A
N1653      C1654   1.356       .  A
N1653      H1663   1.046       .  S
C1654      C1655   1.399       .  A
C1655      H1661   1.082       .  S
N1656      C1657   1.358       .  A
N1656      H1664   1.044       .  S
C1657      C1658   1.395       .  A
C1658      H1662   1.083       .  S
C1665      C1670   1.384       .  A
C1665      C1666   1.400       .  A
C1665      N1671   1.339       .  A
C1666      C1667   1.397   1_545  A
C1666      H1677   1.083   1_545  S
C1667      C1676   1.373       .  A
C1667      C1668   1.383       .  A
C1668      C1669   1.409   1_565  A
C1668      N1674   1.348       .  A
C1669      C1670   1.409       .  A
C1669      H1678   1.082       .  S
C1670      C1673   1.385       .  A
N1671      C1672   1.355       .  A
N1671      H1681   1.045       .  S
C1672      C1673   1.400       .  A
C1673      H1679   1.082       .  S
N1674      C1675   1.359       .  A
N1674      H1682   1.045       .  S
C1675      C1676   1.391       .  A
C1676      H1680   1.083       .  S
C1683      C1688   1.384       .  A
C1683      C1684   1.402       .  A
C1683      N1689   1.345       .  A
C1684      C1685   1.403       .  A
C1684      H1695   1.083       .  S
C1685      C1694   1.374       .  A
C1685      C1686   1.384       .  A
C1686      C1687   1.407       .  A
C1686      N1692   1.348       .  A
C1687      C1688   1.407       .  A
C1687      H1696   1.082       .  S
C1688      C1691   1.380       .  A
N1689      C1690   1.356       .  A
N1689      H1699   1.045       .  S
C1690      C1691   1.398       .  A
C1691      H1697   1.082       .  S
N1692      C1693   1.357       .  A
N1692      H1700   1.045       .  S
C1693      C1694   1.397       .  A
C1694      H1698   1.083       .  S
C1701      C1706   1.383       .  A
C1701      C1702   1.406       .  A
C1701      N1707   1.341       .  A
C1702      C1703   1.402       .  A
C1702      H1713   1.082       .  S
C1703      C1712   1.384       .  A
C1703      C1704   1.383       .  A
C1704      C1705   1.408       .  A
C1704      N1710   1.344       .  A
C1705      C1706   1.406       .  A
C1705      H1714   1.082       .  S
C1706      C1709   1.387       .  A
N1707      C1708   1.359       .  A
N1707      H1717   1.045       .  S
C1708      C1709   1.398       .  A
C1709      H1715   1.082       .  S
N1710      C1711   1.358       .  A
N1710      H1718   1.045       .  S
C1711      C1712   1.396       .  A
C1712      H1716   1.082       .  S
C1719      C1724   1.383       .  A
C1719      C1720   1.407       .  A
C1719      N1725   1.342       .  A
C1720      C1721   1.404       .  A
C1720      H1731   1.082       .  S
C1721      C1730   1.385       .  A
C1721      C1722   1.384       .  A
C1722      C1723   1.405       .  A
C1722      N1728   1.339       .  A
C1723      C1724   1.401       .  A
C1723      H1732   1.082       .  S
C1724      C1727   1.383       .  A
N1725      C1726   1.357       .  A
N1725      H1735   1.045       .  S
C1726      C1727   1.395       .  A
C1727      H1733   1.082       .  S
N1728      C1729   1.358       .  A
N1728      H1736   1.045       .  S
C1729      C1730   1.397       .  A
C1730      H1734   1.082       .  S
C1737      C1742   1.383       .  A
C1737      C1738   1.409       .  A
C1737      N1743   1.351       .  A
C1738      C1739   1.409       .  A
C1738      H1749   1.082       .  S
C1739      C1748   1.383       .  A
C1739      C1740   1.383       .  A
C1740      C1741   1.402       .  A
C1740      N1746   1.345       .  A
C1741      C1742   1.404       .  A
C1741      H1750   1.082       .  S
C1742      C1745   1.374       .  A
N1743      C1744   1.359       .  A
N1743      H1753   1.045       .  S
C1744      C1745   1.399       .  A
C1745      H1751   1.083   1_565  S
N1746      C1747   1.356       .  A
N1746      H1754   1.045       .  S
C1747      C1748   1.400       .  A
C1748      H1752   1.082       .  S
C1755      C1760   1.383       .  A
C1755      C1756   1.402   1_545  A
C1755      N1761   1.338       .  A
C1756      C1757   1.399       .  A
C1756      H1767   1.083       .  S
C1757      C1766   1.378       .  A
C1757      C1758   1.383       .  A
C1758      C1759   1.412   1_565  A
C1758      N1764   1.348       .  A
C1759      C1760   1.410       .  A
C1759      H1768   1.082       .  S
C1760      C1763   1.390       .  A
N1761      C1762   1.358       .  A
N1761      H1771   1.045       .  S
C1762      C1763   1.401       .  A
C1763      H1769   1.082       .  S
N1764      C1765   1.360       .  A
N1764      H1772   1.045       .  S
C1765      C1766   1.393       .  A
C1766      H1770   1.082       .  S
C1773      C1778   1.384       .  A
C1773      C1774   1.404       .  A
C1773      N1779   1.349       .  A
C1774      C1775   1.407       .  A
C1774      H1785   1.082       .  S
C1775      C1784   1.375       .  A
C1775      C1776   1.384       .  A
C1776      C1777   1.406       .  A
C1776      N1782   1.350       .  A
C1777      C1778   1.407       .  A
C1777      H1786   1.082       .  S
C1778      C1781   1.378       .  A
N1779      C1780   1.357       .  A
N1779      H1789   1.045       .  S
C1780      C1781   1.398       .  A
C1781      H1787   1.082       .  S
N1782      C1783   1.357       .  A
N1782      H1790   1.044       .  S
C1783      C1784   1.401       .  A
C1784      H1788   1.083       .  S
C1791      C1796   1.383       .  A
C1791      C1792   1.408       .  A
C1791      N1797   1.345       .  A
C1792      C1793   1.406       .  A
C1792      H1803   1.082       .  S
C1793      C1802   1.387       .  A
C1793      C1794   1.384       .  A
C1794      C1795   1.404       .  A
C1794      N1800   1.340       .  A
C1795      C1796   1.401       .  A
C1795      H1804   1.083       .  S
C1796      C1799   1.380       .  A
N1797      C1798   1.358       .  A
N1797      H1807   1.044       .  S
C1798      C1799   1.396       .  A
C1799      H1805   1.083       .  S
N1800      C1801   1.357       .  A
N1800      H1808   1.045       .  S
C1801      C1802   1.397       .  A
C1802      H1806   1.082       .  S
C1809      C1814   1.384       .  A
C1809      C1810   1.399       .  A
C1809      N1815   1.341       .  A
C1810      C1811   1.400       .  A
C1810      H1821   1.083       .  S
C1811      C1820   1.371       .  A
C1811      C1812   1.383       .  A
C1812      C1813   1.410       .  A
C1812      N1818   1.350       .  A
C1813      C1814   1.410       .  A
C1813      H1822   1.082       .  S
C1814      C1817   1.386       .  A
N1815      C1816   1.353       .  A
N1815      H1825   1.045       .  S
C1816      C1817   1.400       .  A
C1817      H1823   1.082       .  S
N1818      C1819   1.359       .  A
N1818      H1826   1.045       .  S
C1819      C1820   1.396       .  A
C1820      H1824   1.083       .  S
C1827      C1832   1.384       .  A
C1827      C1828   1.409       .  A
C1827      N1833   1.349       .  A
C1828      C1829   1.409       .  A
C1828      H1839   1.082       .  S
C1829      C1838   1.384       .  A
C1829      C1830   1.384       .  A
C1830      C1831   1.398       .  A
C1830      N1836   1.340       .  A
C1831      C1832   1.398       .  A
C1831      H1840   1.083       .  S
C1832      C1835   1.370       .  A
N1833      C1834   1.358       .  A
N1833      H1843   1.045       .  S
C1834      C1835   1.394       .  A
C1835      H1841   1.083   1_455  S
N1836      C1837   1.353       .  A
N1836      H1844   1.045       .  S
C1837      C1838   1.400       .  A
C1838      H1842   1.082       .  S
C1845      C1850   1.383       .  A
C1845      C1846   1.410   1_554  A
C1845      N1851   1.347       .  A
C1846      C1847   1.408       .  A
C1846      H1857   1.082       .  S
C1847      C1856   1.389       .  A
C1847      C1848   1.383       .  A
C1848      C1849   1.406   1_556  A
C1848      N1854   1.342       .  A
C1849      C1850   1.403       .  A
C1849      H1858   1.082   1_455  S
C1850      C1853   1.384       .  A
N1851      C1852   1.360       .  A
N1851      H1861   1.044       .  S
C1852      C1853   1.397       .  A
C1853      H1859   1.082       .  S
N1854      C1855   1.359       .  A
N1854      H1862   1.045   1_455  S
C1855      C1856   1.399       .  A
C1856      H1860   1.082       .  S
C1863      C1868   1.384       .  A
C1863      C1864   1.407       .  A
C1863      N1869   1.352       .  A
C1864      C1865   1.409       .  A
C1864      H1875   1.082       .  S
C1865      C1874   1.377       .  A
C1865      C1866   1.384       .  A
C1866      C1867   1.406       .  A
C1866      N1872   1.350       .  A
C1867      C1868   1.407       .  A
C1867      H1876   1.082       .  S
C1868      C1871   1.377       .  A
N1869      C1870   1.357       .  A
N1869      H1879   1.044       .  S
C1870      C1871   1.398       .  A
C1871      H1877   1.083       .  S
N1872      C1873   1.357       .  A
N1872      H1880   1.045       .  S
C1873      C1874   1.401       .  A
C1874      H1878   1.083       .  S
C1881      C1886   1.384       .  A
C1881      C1882   1.402       .  A
C1881      N1887   1.344       .  A
C1882      C1883   1.402       .  A
C1882      H1893   1.082       .  S
C1883      C1892   1.374       .  A
C1883      C1884   1.383       .  A
C1884      C1885   1.411       .  A
C1884      N1890   1.351       .  A
C1885      C1886   1.411       .  A
C1885      H1894   1.082       .  S
C1886      C1889   1.386       .  A
N1887      C1888   1.356       .  A
N1887      H1897   1.045       .  S
C1888      C1889   1.400       .  A
C1889      H1895   1.082       .  S
N1890      C1891   1.359       .  A
N1890      H1898   1.044       .  S
C1891      C1892   1.396       .  A
C1892      H1896   1.083       .  S
C1899      C1904   1.384   1_545  A
C1899      C1900   1.405       .  A
C1899      N1905   1.350       .  A
C1900      C1901   1.408   1_545  A
C1900      H1911   1.082       .  S
C1901      C1910   1.377       .  A
C1901      C1902   1.384       .  A
C1902      C1903   1.406       .  A
C1902      N1908   1.350       .  A
C1903      C1904   1.406       .  A
C1903      H1912   1.082       .  S
C1904      C1907   1.376   1_565  A
N1905      C1906   1.357       .  A
N1905      H1915   1.044       .  S
C1906      C1907   1.398       .  A
C1907      H1913   1.083       .  S
N1908      C1909   1.357       .  A
N1908      H1916   1.045       .  S
C1909      C1910   1.401       .  A
C1910      H1914   1.083   1_554  S
C1917      C1922   1.383       .  A
C1917      C1918   1.412       .  A
C1917      N1923   1.351       .  A
C1918      C1919   1.411       .  A
C1918      H1929   1.082       .  S
C1919      C1928   1.387       .  A
C1919      C1920   1.383       .  A
C1920      C1921   1.400       .  A
C1920      N1926   1.343       .  A
C1921      C1922   1.401       .  A
C1921      H1930   1.082       .  S
C1922      C1925   1.374       .  A
N1923      C1924   1.360       .  A
N1923      H1933   1.044       .  S
C1924      C1925   1.396       .  A
C1925      H1931   1.083       .  S
N1926      C1927   1.354       .  A
N1926      H1934   1.044       .  S
C1927      C1928   1.402       .  A
C1928      H1932   1.082       .  S
C1935      C1940   1.382       .  A
C1935      C1936   1.411       .  A
C1935      N1941   1.349       .  A
C1936      C1937   1.409   1_655  A
C1936      H1947   1.082       .  S
C1937      C1946   1.386       .  A
C1937      C1938   1.383       .  A
C1938      C1939   1.403   1_455  A
C1938      N1944   1.344       .  A
C1939      C1940   1.403       .  A
C1939      H1948   1.082   1_655  S
C1940      C1943   1.377       .  A
N1941      C1942   1.360       .  A
N1941      H1951   1.045       .  S
C1942      C1943   1.398       .  A
C1943      H1949   1.083       .  S
N1944      C1945   1.355       .  A
N1944      H1952   1.045       .  S
C1945      C1946   1.399       .  A
C1946      H1950   1.082       .  S
C1953      C1958   1.384       .  A
C1953      C1954   1.404   1_655  A
C1953      N1959   1.340   1_545  A
C1954      C1955   1.401       .  A
C1954      H1965   1.082   1_545  S
C1955      C1964   1.381       .  A
C1955      C1956   1.384       .  A
C1956      C1957   1.407   1_455  A
C1956      N1962   1.343       .  A
C1957      C1958   1.405       .  A
C1957      H1966   1.082       .  S
C1958      C1961   1.384       .  A
N1959      C1960   1.358   1_565  A
N1959      H1969   1.045       .  S
C1960      C1961   1.397       .  A
C1961      H1967   1.082       .  S
N1962      C1963   1.358       .  A
N1962      H1970   1.045       .  S
C1963      C1964   1.395       .  A
C1964      H1968   1.082       .  S
C1971      C1976   1.384       .  A
C1971      C1972   1.403       .  A
C1971      N1977   1.340   1_565  A
C1972      C1973   1.399       .  A
C1972      H1983   1.082   1_565  S
C1973      C1982   1.379       .  A
C1973      C1974   1.383       .  A
C1974      C1975   1.409       .  A
C1974      N1980   1.345       .  A
C1975      C1976   1.407       .  A
C1975      H1984   1.082       .  S
C1976      C1979   1.387       .  A
N1977      C1978   1.357   1_545  A
N1977      H1987   1.044       .  S
C1978      C1979   1.398       .  A
C1979      H1985   1.082       .  S
N1980      C1981   1.359       .  A
N1980      H1988   1.044       .  S
C1981      C1982   1.393       .  A
C1982      H1986   1.082       .  S
C1989      C1994   1.384   1_565  A
C1989      C1990   1.407       .  A
C1989      N1995   1.345   1_565  A
C1990      C1991   1.405       .  A
C1990      H2001   1.082       .  S
C1991      C2000   1.384       .  A
C1991      C1992   1.384       .  A
C1992      C1993   1.404   1_565  A
C1992      N1998   1.341   1_556  A
C1993      C1994   1.401       .  A
C1993      H2002   1.082   1_556  S
C1994      C1997   1.380       .  A
N1995      C1996   1.358       .  A
N1995      H2005   1.045       .  S
C1996      C1997   1.394       .  A
C1997      H2003   1.082       .  S
N1998      C1999   1.358       .  A
N1998      H2006   1.045       .  S
C1999      C2000   1.397   1_554  A
C2000      H2004   1.082       .  S
C2007      C2012   1.383       .  A
C2007      C2008   1.413       .  A
C2007      N2013   1.351       .  A
C2008      C2009   1.413       .  A
C2008      H2019   1.082       .  S
C2009      C2018   1.390       .  A
C2009      C2010   1.384       .  A
C2010      C2011   1.399       .  A
C2010      N2016   1.338       .  A
C2011      C2012   1.396       .  A
C2011      H2020   1.083       .  S
C2012      C2015   1.371       .  A
N2013      C2014   1.361       .  A
N2013      H2023   1.044       .  S
C2014      C2015   1.392       .  A
C2015      H2021   1.083       .  S
N2016      C2017   1.355       .  A
N2016      H2024   1.046   1_556  S
C2017      C2018   1.402       .  A
C2018      H2022   1.082       .  S
C2025      C2030   1.384       .  A
C2025      C2026   1.404       .  A
C2025      N2031   1.340       .  A
C2026      C2027   1.400   1_554  A
C2026      H2037   1.082       .  S
C2027      C2036   1.381       .  A
C2027      C2028   1.383   1_556  A
C2028      C2029   1.408       .  A
C2028      N2034   1.343   1_554  A
C2029      C2030   1.406       .  A
C2029      H2038   1.082       .  S
C2030      C2033   1.386       .  A
N2031      C2032   1.357       .  A
N2031      H2041   1.045       .  S
C2032      C2033   1.397       .  A
C2033      H2039   1.082       .  S
N2034      C2035   1.358       .  A
N2034      H2042   1.045       .  S
C2035      C2036   1.393       .  A
C2036      H2040   1.082       .  S
C2043      C2048   1.383       .  A
C2043      C2044   1.408       .  A
C2043      N2049   1.348       .  A
C2044      C2045   1.408       .  A
C2044      H2055   1.082       .  S
C2045      C2054   1.385       .  A
C2045      C2046   1.384       .  A
C2046      C2047   1.400       .  A
C2046      N2052   1.339       .  A
C2047      C2048   1.398       .  A
C2047      H2056   1.083       .  S
C2048      C2051   1.373       .  A
N2049      C2050   1.359       .  A
N2049      H2059   1.044       .  S
C2050      C2051   1.394       .  A
C2051      H2057   1.083       .  S
N2052      C2053   1.355       .  A
N2052      H2060   1.045   1_545  S
C2053      C2054   1.398       .  A
C2054      H2058   1.082       .  S
C2061      C2066   1.384       .  A
C2061      C2062   1.406       .  A
C2061      N2067   1.342       .  A
C2062      C2063   1.404       .  A
C2062      H2073   1.082       .  S
C2063      C2072   1.385       .  A
C2063      C2064   1.384       .  A
C2064      C2065   1.403       .  A
C2064      N2070   1.338       .  A
C2065      C2066   1.399       .  A
C2065      H2074   1.082   1_545  S
C2066      C2069   1.379       .  A
N2067      C2068   1.357       .  A
N2067      H2077   1.045       .  S
C2068      C2069   1.394       .  A
C2069      H2075   1.082       .  S
N2070      C2071   1.357       .  A
N2070      H2078   1.044   1_545  S
C2071      C2072   1.397       .  A
C2072      H2076   1.082       .  S
C2079      C2084   1.384       .  A
C2079      C2080   1.406       .  A
C2079      N2085   1.348       .  A
C2080      C2081   1.405       .  A
C2080      H2091   1.082       .  S
C2081      C2090   1.381       .  A
C2081      C2082   1.384       .  A
C2082      C2083   1.403       .  A
C2082      N2088   1.345       .  A
C2083      C2084   1.404       .  A
C2083      H2092   1.083       .  S
C2084      C2087   1.375       .  A
N2085      C2086   1.356       .  A
N2085      H2095   1.045       .  S
C2086      C2087   1.398       .  A
C2087      H2093   1.083       .  S
N2088      C2089   1.357       .  A
N2088      H2096   1.045       .  S
C2089      C2090   1.396       .  A
C2090      H2094   1.082       .  S
C2097      C2102   1.383       .  A
C2097      C2098   1.411       .  A
C2097      N2103   1.348       .  A
C2098      C2099   1.410       .  A
C2098      H2109   1.082       .  S
C2099      C2108   1.390       .  A
C2099      C2100   1.384       .  A
C2100      C2101   1.403       .  A
C2100      N2106   1.339   1_556  A
C2101      C2102   1.399       .  A
C2101      H2110   1.082   1_556  S
C2102      C2105   1.379       .  A
N2103      C2104   1.359       .  A
N2103      H2113   1.045       .  S
C2104      C2105   1.394       .  A
C2105      H2111   1.082       .  S
N2106      C2107   1.356   1_554  A
N2106      H2114   1.045       .  S
C2107      C2108   1.400       .  A
C2108      H2112   1.082       .  S
C2115      C2120   1.384   1_556  A
C2115      C2116   1.398   1_556  A
C2115      N2121   1.340       .  A
C2116      C2117   1.398       .  A
C2116      H2127   1.083       .  S
C2117      C2126   1.371       .  A
C2117      C2118   1.385       .  A
C2118      C2119   1.408       .  A
C2118      N2124   1.347       .  A
C2119      C2120   1.406       .  A
C2119      H2128   1.082       .  S
C2120      C2123   1.382   1_554  A
N2121      C2122   1.354       .  A
N2121      H2131   1.045       .  S
C2122      C2123   1.398       .  A
C2123      H2129   1.082       .  S
N2124      C2125   1.357       .  A
N2124      H2132   1.045       .  S
C2125      C2126   1.393       .  A
C2126      H2130   1.083       .  S
C2133      C2138   1.384       .  A
C2133      C2134   1.412       .  A
C2133      N2139   1.349       .  A
C2134      C2135   1.411       .  A
C2134      H2145   1.082       .  S
C2135      C2144   1.390       .  A
C2135      C2136   1.384       .  A
C2136      C2137   1.400       .  A
C2136      N2142   1.338       .  A
C2137      C2138   1.397       .  A
C2137      H2146   1.083       .  S
C2138      C2141   1.375       .  A
N2139      C2140   1.359       .  A
N2139      H2149   1.045       .  S
C2140      C2141   1.391       .  A
C2141      H2147   1.082       .  S
N2142      C2143   1.355       .  A
N2142      H2150   1.045       .  S
C2143      C2144   1.401       .  A
C2144      H2148   1.082       .  S
C2151      C2156   1.384       .  A
C2151      C2152   1.408       .  A
C2151      N2157   1.345       .  A
C2152      C2153   1.406       .  A
C2152      H2163   1.082       .  S
C2153      C2162   1.387       .  A
C2153      C2154   1.383       .  A
C2154      C2155   1.405       .  A
C2154      N2160   1.340       .  A
C2155      C2156   1.401       .  A
C2155      H2164   1.083       .  S
C2156      C2159   1.382       .  A
N2157      C2158   1.357       .  A
N2157      H2167   1.045       .  S
C2158      C2159   1.395       .  A
C2159      H2165   1.082       .  S
N2160      C2161   1.359       .  A
N2160      H2168   1.045       .  S
C2161      C2162   1.398       .  A
C2162      H2166   1.082       .  S
C2169      C2174   1.383       .  A
C2169      C2170   1.412       .  A
C2169      N2175   1.349       .  A
C2170      C2171   1.411       .  A
C2170      H2181   1.082       .  S
C2171      C2180   1.392       .  A
C2171      C2172   1.383       .  A
C2172      C2173   1.402       .  A
C2172      N2178   1.338       .  A
C2173      C2174   1.399       .  A
C2173      H2182   1.083       .  S
C2174      C2177   1.377       .  A
N2175      C2176   1.360       .  A
N2175      H2185   1.044       .  S
C2176      C2177   1.393       .  A
C2177      H2183   1.083       .  S
N2178      C2179   1.358       .  A
N2178      H2186   1.045       .  S
C2179      C2180   1.401       .  A
C2180      H2184   1.082       .  S
C2187      C2192   1.385   1_556  A
C2187      C2188   1.405       .  A
C2187      N2193   1.348       .  A
C2188      C2189   1.406       .  A
C2188      H2199   1.082       .  S
C2189      C2198   1.379       .  A
C2189      C2190   1.385       .  A
C2190      C2191   1.400   1_556  A
C2190      N2196   1.344       .  A
C2191      C2192   1.401       .  A
C2191      H2200   1.083       .  S
C2192      C2195   1.371       .  A
N2193      C2194   1.356   1_556  A
N2193      H2203   1.045       .  S
C2194      C2195   1.397       .  A
C2195      H2201   1.083       .  S
N2196      C2197   1.353       .  A
N2196      H2204   1.045       .  S
C2197      C2198   1.395       .  A
C2198      H2202   1.082       .  S
C2205      C2210   1.385       .  A
C2205      C2206   1.403       .  A
C2205      N2211   1.348       .  A
C2206      C2207   1.404   1_556  A
C2206      H2217   1.082       .  S
C2207      C2216   1.373       .  A
C2207      C2208   1.385       .  A
C2208      C2209   1.402       .  A
C2208      N2214   1.348       .  A
C2209      C2210   1.405   1_554  A
C2209      H2218   1.082   1_655  S
C2210      C2213   1.373   1_655  A
N2211      C2212   1.356       .  A
N2211      H2221   1.045       .  S
C2212      C2213   1.399   1_655  A
C2213      H2219   1.083       .  S
N2214      C2215   1.355       .  A
N2214      H2222   1.044       .  S
C2215      C2216   1.396       .  A
C2216      H2220   1.083       .  S
C2223      C2228   1.383       .  A
C2223      C2224   1.409       .  A
C2223      N2229   1.347       .  A
C2224      C2225   1.408       .  A
C2224      H2235   1.082       .  S
C2225      C2234   1.386       .  A
C2225      C2226   1.383       .  A
C2226      C2227   1.403       .  A
C2226      N2232   1.341       .  A
C2227      C2228   1.401       .  A
C2227      H2236   1.082       .  S
C2228      C2231   1.378       .  A
N2229      C2230   1.359       .  A
N2229      H2239   1.045       .  S
C2230      C2231   1.395       .  A
C2231      H2237   1.082       .  S
N2232      C2233   1.356       .  A
N2232      H2240   1.045   1_655  S
C2233      C2234   1.399       .  A
C2234      H2238   1.082       .  S
C2241      C2246   1.383   1_455  A
C2241      C2242   1.406       .  A
C2241      N2247   1.342   1_455  A
C2242      C2243   1.404       .  A
C2242      H2253   1.082       .  S
C2243      C2252   1.385       .  A
C2243      C2244   1.383       .  A
C2244      C2245   1.408       .  A
C2244      N2250   1.342       .  A
C2245      C2246   1.404   1_455  A
C2245      H2254   1.082   1_455  S
C2246      C2249   1.386       .  A
N2247      C2248   1.358       .  A
N2247      H2257   1.044   1_655  S
C2248      C2249   1.397       .  A
C2249      H2255   1.082       .  S
N2250      C2251   1.360       .  A
N2250      H2258   1.045       .  S
C2251      C2252   1.397       .  A
C2252      H2256   1.082       .  S
C2259      C2264   1.383       .  A
C2259      C2260   1.404       .  A
C2259      N2265   1.343       .  A
C2260      C2261   1.403       .  A
C2260      H2271   1.082       .  S
C2261      C2270   1.378       .  A
C2261      C2262   1.383       .  A
C2262      C2263   1.409       .  A
C2262      N2268   1.350       .  A
C2263      C2264   1.409       .  A
C2263      H2272   1.082       .  S
C2264      C2267   1.386       .  A
N2265      C2266   1.357       .  A
N2265      H2275   1.045       .  S
C2266      C2267   1.399       .  A
C2267      H2273   1.082       .  S
N2268      C2269   1.359       .  A
N2268      H2276   1.044       .  S
C2269      C2270   1.396       .  A
C2270      H2274   1.083       .  S
C2277      C2282   1.383       .  A
C2277      C2278   1.404       .  A
C2277      N2283   1.342       .  A
C2278      C2279   1.403       .  A
C2278      H2289   1.082       .  S
C2279      C2288   1.382       .  A
C2279      C2280   1.384       .  A
C2280      C2281   1.406       .  A
C2280      N2286   1.341   1_554  A
C2281      C2282   1.402       .  A
C2281      H2290   1.082   1_554  S
C2282      C2285   1.382       .  A
N2283      C2284   1.356       .  A
N2283      H2293   1.045       .  S
C2284      C2285   1.396       .  A
C2285      H2291   1.082       .  S
N2286      C2287   1.359   1_556  A
N2286      H2294   1.044       .  S
C2287      C2288   1.395       .  A
C2288      H2292   1.082       .  S
C2295      C2300   1.383       .  A
C2295      C2296   1.406       .  A
C2295      N2301   1.344       .  A
C2296      C2297   1.405       .  A
C2296      H2307   1.082       .  S
C2297      C2306   1.384       .  A
C2297      C2298   1.383       .  A
C2298      C2299   1.403       .  A
C2298      N2304   1.339       .  A
C2299      C2300   1.400       .  A
C2299      H2308   1.083       .  S
C2300      C2303   1.378       .  A
N2301      C2302   1.357       .  A
N2301      H2311   1.045       .  S
C2302      C2303   1.394       .  A
C2303      H2309   1.083       .  S
N2304      C2305   1.356       .  A
N2304      H2312   1.045       .  S
C2305      C2306   1.397       .  A
C2306      H2310   1.082       .  S
C2313      C2318   1.384       .  A
C2313      C2314   1.404       .  A
C2313      N2319   1.340       .  A
C2314      C2315   1.400       .  A
C2314      H2325   1.082       .  S
C2315      C2324   1.380       .  A
C2315      C2316   1.383       .  A
C2316      C2317   1.409       .  A
C2316      N2322   1.346       .  A
C2317      C2318   1.407       .  A
C2317      H2326   1.082       .  S
C2318      C2321   1.387       .  A
N2319      C2320   1.357       .  A
N2319      H2329   1.045       .  S
C2320      C2321   1.398       .  A
C2321      H2327   1.082       .  S
N2322      C2323   1.358       .  A
N2322      H2330   1.044       .  S
C2323      C2324   1.394       .  A
C2324      H2328   1.082       .  S
C2331      C2336   1.383       .  A
C2331      C2332   1.404       .  A
C2331      N2337   1.343       .  A
C2332      C2333   1.404       .  A
C2332      H2343   1.082       .  S
C2333      C2342   1.380       .  A
C2333      C2334   1.383       .  A
C2334      C2335   1.406       .  A
C2334      N2340   1.343       .  A
C2335      C2336   1.403       .  A
C2335      H2344   1.082       .  S
C2336      C2339   1.381       .  A
N2337      C2338   1.357       .  A
N2337      H2347   1.045       .  S
C2338      C2339   1.397       .  A
C2339      H2345   1.082       .  S
N2340      C2341   1.358       .  A
N2340      H2348   1.045       .  S
C2341      C2342   1.397       .  A
C2342      H2346   1.083       .  S
C2349      C2354   1.383       .  A
C2349      C2350   1.408       .  A
C2349      N2355   1.352       .  A
C2350      C2351   1.409       .  A
C2350      H2361   1.082       .  S
C2351      C2360   1.380   1_455  A
C2351      C2352   1.384   1_455  A
C2352      C2353   1.403   1_655  A
C2352      N2358   1.349       .  A
C2353      C2354   1.406       .  A
C2353      H2362   1.082   1_455  S
C2354      C2357   1.374       .  A
N2355      C2356   1.359       .  A
N2355      H2365   1.045       .  S
C2356      C2357   1.400       .  A
C2357      H2363   1.083       .  S
N2358      C2359   1.355       .  A
N2358      H2366   1.044       .  S
C2359      C2360   1.398       .  A
C2360      H2364   1.082       .  S
C2367      C2372   1.384       .  A
C2367      C2368   1.402       .  A
C2367      N2373   1.338       .  A
C2368      C2369   1.398       .  A
C2368      H2379   1.083       .  S
C2369      C2378   1.377       .  A
C2369      C2370   1.384       .  A
C2370      C2371   1.409       .  A
C2370      N2376   1.345       .  A
C2371      C2372   1.407       .  A
C2371      H2380   1.082       .  S
C2372      C2375   1.387       .  A
N2373      C2374   1.357       .  A
N2373      H2383   1.045       .  S
C2374      C2375   1.399       .  A
C2375      H2381   1.082       .  S
N2376      C2377   1.357       .  A
N2376      H2384   1.045       .  S
C2377      C2378   1.393       .  A
C2378      H2382   1.083       .  S
C2385      C2390   1.384       .  A
C2385      C2386   1.399       .  A
C2385      N2391   1.342       .  A
C2386      C2387   1.400       .  A
C2386      H2397   1.083       .  S
C2387      C2396   1.371       .  A
C2387      C2388   1.385       .  A
C2388      C2389   1.406       .  A
C2388      N2394   1.346       .  A
C2389      C2390   1.405       .  A
C2389      H2398   1.082       .  S
C2390      C2393   1.379       .  A
N2391      C2392   1.353       .  A
N2391      H2401   1.045       .  S
C2392      C2393   1.396       .  A
C2393      H2399   1.082       .  S
N2394      C2395   1.356       .  A
N2394      H2402   1.045       .  S
C2395      C2396   1.394       .  A
C2396      H2400   1.083       .  S
C2403      C2408   1.384       .  A
C2403      C2404   1.400       .  A
C2403      N2409   1.345       .  A
C2404      C2405   1.402       .  A
C2404      H2415   1.083       .  S
C2405      C2414   1.369       .  A
C2405      C2406   1.383       .  A
C2406      C2407   1.410       .  A
C2406      N2412   1.354       .  A
C2407      C2408   1.412       .  A
C2407      H2416   1.082       .  S
C2408      C2411   1.384       .  A
N2409      C2410   1.354       .  A
N2409      H2419   1.045       .  S
C2410      C2411   1.401       .  A
C2411      H2417   1.082       .  S
N2412      C2413   1.359       .  A
N2412      H2420   1.045       .  S
C2413      C2414   1.399       .  A
C2414      H2418   1.083       .  S
C2421      C2426   1.384       .  A
C2421      C2422   1.403       .  A
C2421      N2427   1.338       .  A
C2422      C2423   1.398       .  A
C2422      H2433   1.083       .  S
C2423      C2432   1.379       .  A
C2423      C2424   1.384       .  A
C2424      C2425   1.408       .  A
C2424      N2430   1.345       .  A
C2425      C2426   1.407       .  A
C2425      H2434   1.082       .  S
C2426      C2429   1.387       .  A
N2427      C2428   1.357       .  A
N2427      H2437   1.045       .  S
C2428      C2429   1.398       .  A
C2429      H2435   1.082       .  S
N2430      C2431   1.357       .  A
N2430      H2438   1.045       .  S
C2431      C2432   1.392       .  A
C2432      H2436   1.082       .  S
C2439      C2444   1.383       .  A
C2439      C2440   1.408       .  A
C2439      N2445   1.345       .  A
C2440      C2441   1.407       .  A
C2440      H2451   1.082       .  S
C2441      C2450   1.386       .  A
C2441      C2442   1.384       .  A
C2442      C2443   1.404       .  A
C2442      N2448   1.340       .  A
C2443      C2444   1.400       .  A
C2443      H2452   1.082       .  S
C2444      C2447   1.380       .  A
N2445      C2446   1.358       .  A
N2445      H2455   1.045       .  S
C2446      C2447   1.394       .  A
C2447      H2453   1.082       .  S
N2448      C2449   1.358       .  A
N2448      H2456   1.045       .  S
C2449      C2450   1.399       .  A
C2450      H2454   1.082       .  S
C2457      C2462   1.384       .  A
C2457      C2458   1.407       .  A
C2457      N2463   1.344       .  A
C2458      C2459   1.406       .  A
C2458      H2469   1.082       .  S
C2459      C2468   1.385       .  A
C2459      C2460   1.384       .  A
C2460      C2461   1.405       .  A
C2460      N2466   1.340       .  A
C2461      C2462   1.401       .  A
C2461      H2470   1.082       .  S
C2462      C2465   1.383       .  A
N2463      C2464   1.356       .  A
N2463      H2473   1.044       .  S
C2464      C2465   1.394       .  A
C2465      H2471   1.082       .  S
N2466      C2467   1.357       .  A
N2466      H2474   1.045       .  S
C2467      C2468   1.397       .  A
C2468      H2472   1.082       .  S
C2475      C2480   1.383       .  A
C2475      C2476   1.412       .  A
C2475      N2481   1.350       .  A
C2476      C2477   1.411       .  A
C2476      H2487   1.082       .  S
C2477      C2486   1.391       .  A
C2477      C2478   1.383       .  A
C2478      C2479   1.402       .  A
C2478      N2484   1.339       .  A
C2479      C2480   1.398       .  A
C2479      H2488   1.083       .  S
C2480      C2483   1.376       .  A
N2481      C2482   1.360       .  A
N2481      H2491   1.045       .  S
C2482      C2483   1.392       .  A
C2483      H2489   1.082       .  S
N2484      C2485   1.357       .  A
N2484      H2492   1.045       .  S
C2485      C2486   1.401       .  A
C2486      H2490   1.082       .  S
C2493      C2498   1.383       .  A
C2493      C2494   1.412       .  A
C2493      N2499   1.348       .  A
C2494      C2495   1.411       .  A
C2494      H2505   1.082       .  S
C2495      C2504   1.391       .  A
C2495      C2496   1.383       .  A
C2496      C2497   1.401       .  A
C2496      N2502   1.338       .  A
C2497      C2498   1.397       .  A
C2497      H2506   1.083       .  S
C2498      C2501   1.376       .  A
N2499      C2500   1.360       .  A
N2499      H2509   1.044       .  S
C2500      C2501   1.393       .  A
C2501      H2507   1.083       .  S
N2502      C2503   1.357       .  A
N2502      H2510   1.045       .  S
C2503      C2504   1.401       .  A
C2504      H2508   1.082       .  S
C2511      C2516   1.383       .  A
C2511      C2512   1.401       .  A
C2511      N2517   1.337       .  A
C2512      C2513   1.397       .  A
C2512      H2523   1.083       .  S
C2513      C2522   1.377       .  A
C2513      C2514   1.383       .  A
C2514      C2515   1.413       .  A
C2514      N2520   1.349       .  A
C2515      C2516   1.411       .  A
C2515      H2524   1.082       .  S
C2516      C2519   1.393       .  A
N2517      C2518   1.357       .  A
N2517      H2527   1.044       .  S
C2518      C2519   1.401       .  A
C2519      H2525   1.082       .  S
N2520      C2521   1.360       .  A
N2520      H2528   1.044       .  S
C2521      C2522   1.393       .  A
C2522      H2526   1.083       .  S
