geometry optimzed in LAMMPS
_audit_creation_date              2020-11-30 
_audit_creation_method            'lammps2cif' 
_symmetry_space_group_name_H-M    'P1' 
_symmetry_Int_Tables_number       1 
_symmetry_cell_setting            triclinic 
loop_ 
_symmetry_equiv_pos_as_xyz 
  x,y,z 
_cell_length_a                    47.70694509 
_cell_length_b                    47.630344845106336 
_cell_length_c                    47.75752427882335 
_cell_angle_alpha                 89.97091544845331 
_cell_angle_beta                  89.99373844396936 
_cell_angle_gamma                 90.01239806502977 
loop_ 
_atom_site_label 
_atom_site_type_symbol 
_atom_site_fract_x 
_atom_site_fract_y 
_atom_site_fract_z 
_atom_site_charge 
N1          N  0.50285054  0.04334488  0.50089012    -0.34700
N2          N  0.50161567  0.00026483  0.45748581    -0.55300
N3          N  0.50068333  0.95719371  0.50082251    -0.34700
N4          N  0.49959023  0.00024068  0.54426268    -0.55300
C5          C  0.49865393  0.05955817  0.47796285     0.28900
C6          C  0.49816493  0.05959576  0.52367844     0.28900
C7          C  0.49672005  0.94101414  0.47784804     0.28900
C8          C  0.49535900  0.94103798  0.52355051     0.28900
C9          C  0.50506848  0.02300541  0.44089033     0.37500
C10         C  0.50461216  0.97747430  0.44089313     0.37500
C11         C  0.50357955  0.02292348  0.56083110     0.37500
C12         C  0.50215649  0.97733189  0.56084136     0.37500
C13         C  0.49161624  0.08654476  0.48632120    -0.20000
C14         C  0.49134835  0.08658244  0.51509027    -0.20000
C15         C  0.48919829  0.91412318  0.48614003    -0.20000
C16         C  0.48828034  0.91415466  0.51487212    -0.20000
C17         C  0.50980539  0.01463348  0.41350407    -0.21000
C18         C  0.50953348  0.98580684  0.41350337    -0.21000
C19         C  0.50823266  0.01438847  0.58819518    -0.21000
C20         C  0.50732272  0.98553014  0.58820021    -0.21000
C21         C  0.50244602  0.05122419  0.44972083    -0.16400
C22         C  0.50130293  0.05123370  0.55201142    -0.16400
C23         C  0.49861909  0.94917810  0.55192422    -0.16400
C24         C  0.50113135  0.94930334  0.44965974    -0.16400
H25         H  0.48738389  0.10451100  0.47309760     0.16500
H26         H  0.48689147  0.10459859  0.52814872     0.16500
H27         H  0.48514861  0.89611179  0.47295128     0.16500
H28         H  0.48342116  0.89616857  0.52784505     0.16500
H29         H  0.51279172  0.02790090  0.39534060     0.14800
H30         H  0.51221309  0.97253726  0.39530964     0.14800
H31         H  0.51166167  0.02757480  0.60632533     0.14800
H32         H  0.50995698  0.97213542  0.60632117     0.14800
H33         H  0.51146419  0.02342175  0.50103546     0.28100
H34         H  0.50961052  0.97696351  0.50106676     0.28100
N35         N  0.95764063  0.49973611  0.49510828    -0.34700
N36         N  0.00146718  0.54287760  0.49955802    -0.55300
N37         N  0.04369470  0.49842406  0.50159610    -0.34700
N38         N  0.99986006  0.45530507  0.49770578    -0.55300
C39         C  0.94133308  0.52294324  0.49757352     0.28900
C40         C  0.94054587  0.47699766  0.49687090     0.28900
C41         C  0.06073888  0.52111383  0.49912399     0.28900
C42         C  0.05986359  0.47520776  0.49850877     0.28900
C43         C  0.97891219  0.56010457  0.49932391     0.37500
C44         C  0.02450584  0.55938783  0.50130759     0.37500
C45         C  0.97684670  0.43871571  0.49711735     0.37500
C46         C  0.02234599  0.43809154  0.49912355     0.37500
C47         C  0.91351460  0.51477562  0.50003982    -0.20000
C48         C  0.91302860  0.48597572  0.49962024    -0.20000
C49         C  0.08811501  0.51207036  0.49519182    -0.20000
C50         C  0.08755903  0.48327342  0.49480544    -0.20000
C51         C  0.98770652  0.58780631  0.50102762    -0.21000
C52         C  0.01651251  0.58735131  0.50228956    -0.21000
C53         C  0.98479675  0.41073234  0.49806003    -0.21000
C54         C  0.01356323  0.41033624  0.49935576    -0.21000
C55         C  0.95044994  0.55139390  0.49809369    -0.16400
C56         C  0.94869452  0.44826546  0.49653334    -0.16400
C57         C  0.05075217  0.44681747  0.49933477    -0.16400
C58         C  0.05269521  0.54982999  0.50064502    -0.16400
H59         H  0.89532846  0.52814716  0.50239071     0.16500
H60         H  0.89441599  0.47312798  0.50157698     0.16500
H61         H  0.10672016  0.52483860  0.49274887     0.16500
H62         H  0.10561795  0.46982618  0.49194564     0.16500
H63         H  0.97473235  0.60644244  0.50132464     0.14800
H64         H  0.03002291  0.60557118  0.50346578     0.14800
H65         H  0.97128817  0.39247280  0.49798859     0.14800
H66         H  0.02652207  0.39170365  0.50020431     0.14800
H67         H  0.97882674  0.49951774  0.49080820     0.28100
H68         H  0.02284041  0.49866340  0.50737729     0.28100
N69         N  0.49960017  0.50058023  0.95704409    -0.34700
N70         N  0.45567430  0.50149604  0.99976893    -0.55300
N71         N  0.49880105  0.50053053  0.04289888    -0.34700
N72         N  0.54274357  0.50182068  0.00021847    -0.55300
C73         C  0.47677105  0.50489425  0.94075978     0.28900
C74         C  0.52254948  0.50527714  0.94099442     0.28900
C75         C  0.47575614  0.50529868  0.05881932     0.28900
C76         C  0.52158893  0.50546136  0.05909269     0.28900
C77         C  0.43939517  0.49772411  0.97689160     0.37500
C78         C  0.43899126  0.49760996  0.02235306     0.37500
C79         C  0.55950126  0.49854871  0.97757999     0.37500
C80         C  0.55905890  0.49813467  0.02309937     0.37500
C81         C  0.48536504  0.51194372  0.91389679    -0.20000
C82         C  0.51413023  0.51217753  0.91404350    -0.20000
C83         C  0.48403668  0.51319293  0.08551231    -0.20000
C84         C  0.51286780  0.51328264  0.08569652    -0.20000
C85         C  0.41209644  0.49189927  0.98498330    -0.21000
C86         C  0.41185031  0.49178311  0.01376814    -0.21000
C87         C  0.58674620  0.49319856  0.98613642    -0.21000
C88         C  0.58646045  0.49289002  0.01494651    -0.21000
C89         C  0.44840997  0.50107786  0.94883820    -0.16400
C90         C  0.55088687  0.50187068  0.94936034    -0.16400
C91         C  0.54998123  0.50126334  0.05119846    -0.16400
C92         C  0.44752183  0.50082719  0.05057446    -0.16400
H93         H  0.47233310  0.51610310  0.89582349     0.16500
H94         H  0.52727546  0.51654669  0.89610147     0.16500
H95         H  0.47072085  0.51796524  0.10322674     0.16500
H96         H  0.52588034  0.51812903  0.10361193     0.16500
H97         H  0.39417055  0.48831396  0.97156415     0.14800
H98         H  0.39369212  0.48812421  0.02686063     0.14800
H99         H  0.60498636  0.49011637  0.97301572     0.14800
H100        H  0.60445574  0.48957741  0.02834572     0.14800
H101        H  0.49950917  0.49193805  0.97695251     0.28100
H102        H  0.49899867  0.49110738  0.02335864     0.28100
N103        N  0.99863483  0.54280182  0.00086851    -0.34700
N104        N  0.00190624  0.49958047  0.95747003    -0.55300
N105        N  0.00221639  0.45671648  0.00123555    -0.34700
N106        N  0.00122961  0.49991772  0.04455608    -0.55300
C107        C  0.00284319  0.55899253  0.97791831     0.28900
C108        C  0.00308137  0.55915751  0.02366250     0.28900
C109        C  0.00688117  0.44039826  0.97846495     0.28900
C110        C  0.00638384  0.44059004  0.02425596     0.28900
C111        C  0.99755204  0.52219493  0.94085868     0.37500
C112        C  0.99947389  0.47657531  0.94100880     0.37500
C113        C  0.99713386  0.52270549  0.06095981     0.37500
C114        C  0.99833535  0.47708278  0.06118623     0.37500
C115        C  0.00951527  0.58608080  0.98627968    -0.20000
C116        C  0.00970382  0.58617088  0.01502723    -0.20000
C117        C  0.01372600  0.41346485  0.98720906    -0.20000
C118        C  0.01343017  0.41359409  0.01594204    -0.20000
C119        C  0.99283556  0.51354369  0.91355455    -0.21000
C120        C  0.99408624  0.48468165  0.91363958    -0.21000
C121        C  0.99196831  0.51431597  0.08827321    -0.21000
C122        C  0.99272031  0.48544764  0.08841650    -0.21000
C123        C  0.99939889  0.55056419  0.94963263    -0.16400
C124        C  0.99981728  0.55096415  0.05205356    -0.16400
C125        C  0.00226650  0.44887786  0.05252830    -0.16400
C126        C  0.00326113  0.44843124  0.95003436    -0.16400
H127        H  0.01360588  0.60410337  0.97309532     0.16500
H128        H  0.01392910  0.60427452  0.02803824     0.16500
H129        H  0.01795960  0.39527881  0.97433306     0.16500
H130        H  0.01741765  0.39555096  0.02911859     0.16500
H131        H  0.98912898  0.52665640  0.89541239     0.14800
H132        H  0.99149825  0.47123845  0.89556060     0.14800
H133        H  0.98836258  0.52760032  0.10629616     0.14800
H134        H  0.98980904  0.47216936  0.10658101     0.14800
H135        H  0.99017024  0.52278034  0.00094281     0.28100
H136        H  0.99363597  0.47662769  0.00104902     0.28100
N137        N  0.45695067  0.99891042  0.99819004    -0.34700
N138        N  0.49924463  0.04354547  0.99692595    -0.55300
N139        N  0.54301614  0.00088747  0.99472824    -0.34700
N140        N  0.50069367  0.95629619  0.99829486    -0.55300
C141        C  0.44053487  0.02158910  0.00305651     0.28900
C142        C  0.44134094  0.97570554  0.00342958     0.28900
C143        C  0.55893223  0.02414560  0.99852767     0.28900
C144        C  0.55970254  0.97826828  0.99891048     0.28900
C145        C  0.47600873  0.05971897  0.99510845     0.37500
C146        C  0.52155998  0.06078717  0.99359485     0.37500
C147        C  0.47820983  0.93908024  0.99620417     0.37500
C148        C  0.52370085  0.94014084  0.99457399     0.37500
C149        C  0.41402235  0.01259753  0.01101075    -0.20000
C150        C  0.41453772  0.98379199  0.01125184    -0.20000
C151        C  0.58624327  0.01609269  0.00455819    -0.20000
C152        C  0.58670905  0.98728328  0.00483071    -0.20000
C153        C  0.48362992  0.08749871  0.99082726    -0.21000
C154        C  0.51245319  0.08817544  0.98990886    -0.21000
C155        C  0.48700734  0.91175129  0.99154348    -0.21000
C156        C  0.51580193  0.91241712  0.99052235    -0.21000
C157        C  0.44813894  0.05017893  0.99924476    -0.16400
C158        C  0.44994261  0.94739252  0.99995431    -0.16400
C159        C  0.55178262  0.94965526  0.99639960    -0.16400
C160        C  0.55002157  0.05248042  0.99577652    -0.16400
H161        H  0.39593028  0.02538409  0.01587305     0.16500
H162        H  0.39694923  0.97038785  0.01634676     0.16500
H163        H  0.60416989  0.02950818  0.00823977     0.16500
H164        H  0.60500810  0.97446307  0.00879466     0.16500
H165        H  0.46989471  0.10550242  0.98911316     0.14800
H166        H  0.52523374  0.10677394  0.98730961     0.14800
H167        H  0.47406181  0.89321304  0.98940511     0.14800
H168        H  0.52937500  0.89447855  0.98742143     0.14800
H169        H  0.47657384  0.99924571  0.98889389     0.28100
H170        H  0.52269889  0.00039696  0.98699063     0.28100
Zn171      Zn  0.75541202  0.76075787  0.70947539     1.49700
Zn172      Zn  0.71212431  0.75727099  0.76048110     1.49400
Zn173      Zn  0.76034847  0.71123409  0.75391349     1.49100
Zn174      Zn  0.77648918  0.77458687  0.77223068     1.49500
O175        O  0.75116757  0.75110312  0.74915904    -1.82200
O176        O  0.71887640  0.77423995  0.69272567    -0.72800
O177        O  0.69417176  0.72142464  0.77458484    -0.72700
O178        O  0.77435603  0.69367035  0.71799258    -0.72200
O179        O  0.68894641  0.77288632  0.72848707    -0.72900
O180        O  0.77083473  0.72827528  0.68690530    -0.72500
O181        O  0.72747355  0.68919119  0.76898365    -0.73000
O182        O  0.80425364  0.75016170  0.79332924    -0.72400
O183        O  0.71031393  0.78484897  0.79227043    -0.73200
O184        O  0.79150674  0.70673531  0.78163836    -0.72600
O185        O  0.75452460  0.79682855  0.80130768    -0.73000
O186        O  0.79837696  0.80206193  0.74784049    -0.73000
O187        O  0.78310120  0.79210042  0.70491632    -0.72700
C188        C  0.69462796  0.77841674  0.70301983     0.79000
C189        C  0.70296562  0.69629332  0.77673026     0.79500
C190        C  0.77774205  0.70329850  0.69337647     0.78500
C191        C  0.80705181  0.72363235  0.79513102     0.78900
C192        C  0.72835646  0.79846917  0.80637728     0.80000
C193        C  0.79848102  0.80618889  0.72146848     0.79100
Zn194      Zn  0.20947109  0.74535208  0.74220161     1.49700
Zn195      Zn  0.25423895  0.74216756  0.79141405     1.49400
Zn196      Zn  0.27293307  0.72652388  0.72800781     1.49100
Zn197      Zn  0.25904127  0.79042631  0.74555155     1.49500
O198        O  0.24906416  0.75095942  0.75164631    -1.82200
O199        O  0.18746134  0.72961841  0.77492323    -0.72800
O200        O  0.28356936  0.71252578  0.79584958    -0.72700
O201        O  0.24909519  0.70377344  0.70056871    -0.72200
O202        O  0.21891272  0.72675105  0.80919861    -0.72900
O203        O  0.20572187  0.71762699  0.71082697    -0.72500
O204        O  0.29553138  0.69987362  0.75253314    -0.73000
O205        O  0.29089527  0.79359107  0.71845955    -0.72400
O206        O  0.26759435  0.77581813  0.81326565    -0.73200
O207        O  0.30068802  0.74986841  0.70524182    -0.72600
O208        O  0.27156114  0.80957180  0.78128536    -0.73000
O209        O  0.22693623  0.81181859  0.72839473    -0.73000
O210        O  0.19172641  0.78113587  0.72778925    -0.72700
C211        C  0.19424470  0.72293028  0.79982417     0.79000
C212        C  0.29765058  0.69744319  0.77903043     0.79500
C213        C  0.22269880  0.70304618  0.69639675     0.78500
C214        C  0.30508058  0.77624210  0.70409525     0.78900
C215        C  0.27403825  0.80077540  0.80632598     0.80000
C216        C  0.20174025  0.80534813  0.72256911     0.79100
Zn217      Zn  0.75627331  0.24313208  0.70981376     1.49700
Zn218      Zn  0.75991034  0.29261866  0.75456277     1.49400
Zn219      Zn  0.71124629  0.24671396  0.75899759     1.49100
Zn220      Zn  0.77487380  0.22941379  0.77362304     1.49500
O221        O  0.75071721  0.25284736  0.74934292    -1.82200
O222        O  0.76945889  0.27650267  0.68720475    -0.72800
O223        O  0.72735837  0.31373596  0.77130087    -0.72700
O224        O  0.68944621  0.23082644  0.72648117    -0.72200
O225        O  0.77167589  0.31120738  0.71830560    -0.72900
O226        O  0.72102795  0.22734399  0.69236783    -0.72500
O227        O  0.69290236  0.28224998  0.77307404    -0.73000
O228        O  0.75141842  0.20631820  0.80103103    -0.72400
O229        O  0.79214576  0.29697646  0.78122033    -0.73200
O230        O  0.70776034  0.21857074  0.79003389    -0.72600
O231        O  0.80223206  0.25372616  0.79577988    -0.73000
O232        O  0.79794546  0.20251624  0.74998609    -0.73000
O233        O  0.78568114  0.21326220  0.70625384    -0.72700
C234        C  0.77488103  0.30186634  0.69355901     0.79000
C235        C  0.70233963  0.30684686  0.77743971     0.79500
C236        C  0.69633903  0.22371883  0.70175595     0.78500
C237        C  0.72500349  0.20447634  0.80463295     0.78900
C238        C  0.80654057  0.28013809  0.79602551     0.80000
C239        C  0.79999838  0.19900656  0.72362298     0.79100
Zn240      Zn  0.22767138  0.22551838  0.77438497     1.49700
Zn241      Zn  0.24018314  0.28951453  0.75625260     1.49400
Zn242      Zn  0.29070930  0.24553138  0.75937154     1.49100
Zn243      Zn  0.24488366  0.24055712  0.71078890     1.49500
O244        O  0.25079507  0.25017216  0.75030050    -1.82200
O245        O  0.20076992  0.24857950  0.79824156    -0.72800
O246        O  0.27257989  0.31219213  0.77107235    -0.72700
O247        O  0.29545514  0.21768285  0.79063151    -0.72200
O248        O  0.20953148  0.29255066  0.78504514    -0.72900
O249        O  0.25234168  0.20300777  0.80092624    -0.72500
O250        O  0.30807320  0.28191941  0.77291861    -0.73000
O251        O  0.28032621  0.22584076  0.69288995    -0.72400
O252        O  0.22599511  0.30749912  0.72064209    -0.73200
O253        O  0.31245082  0.22999270  0.72644175    -0.72600
O254        O  0.23023000  0.27370018  0.68873148    -0.73000
O255        O  0.21639178  0.20967020  0.70716909    -0.73000
O256        O  0.20468149  0.19816449  0.75082766    -0.72700
C257        C  0.19620586  0.27488152  0.79992451     0.79000
C258        C  0.29791633  0.30630901  0.77687238     0.79500
C259        C  0.27874956  0.20256915  0.80487746     0.78500
C260        C  0.30522989  0.22265792  0.70185245     0.78900
C261        C  0.22326119  0.29852008  0.69570979     0.80000
C262        C  0.20258140  0.19478420  0.72443390     0.79100
Zn263      Zn  0.76069485  0.71120930  0.24363564     1.49700
Zn264      Zn  0.75413085  0.76028206  0.28804422     1.49400
Zn265      Zn  0.77287605  0.77522980  0.22459056     1.49100
Zn266      Zn  0.70995115  0.75502530  0.23847692     1.49500
O267        O  0.74954829  0.75054576  0.24846054    -1.82200
O268        O  0.77564939  0.69421446  0.27955221    -0.72800
O269        O  0.78174905  0.79143652  0.29223545    -0.72700
O270        O  0.80093202  0.75198926  0.20201283    -0.72200
O271        O  0.76925014  0.72818261  0.31082117    -0.72900
O272        O  0.79155600  0.70811851  0.21522831    -0.72500
O273        O  0.79485226  0.80272345  0.24889221    -0.73000
O274        O  0.70554662  0.78178265  0.20626659    -0.72400
O275        O  0.71830865  0.77420329  0.30526685    -0.73200
O276        O  0.74851687  0.79756599  0.19712638    -0.72600
O277        O  0.68750202  0.77138181  0.27042290    -0.73000
O278        O  0.69293879  0.71817358  0.22653062    -0.73000
O279        O  0.72831946  0.68781969  0.22970302    -0.72700
C280        C  0.77756144  0.70368603  0.30438266     0.79000
C281        C  0.79602428  0.80623306  0.27533170     0.79500
C282        C  0.80550266  0.72563759  0.20076119     0.78500
C283        C  0.72219470  0.79731414  0.19241879     0.78900
C284        C  0.69385591  0.77796656  0.29543896     0.80000
C285        C  0.70297876  0.69359725  0.22371957     0.79100
Zn286      Zn  0.22665945  0.77382337  0.22646971     1.49700
Zn287      Zn  0.24143936  0.71078279  0.24586691     1.49400
Zn288      Zn  0.29053825  0.75610514  0.24272276     1.49100
Zn289      Zn  0.24408666  0.76085315  0.29060749     1.49500
O290        O  0.25059210  0.75056044  0.25129413    -1.82200
O291        O  0.20008577  0.74933171  0.20330973    -0.72800
O292        O  0.27417926  0.68926114  0.22980489    -0.72700
O293        O  0.29454428  0.78468223  0.21202759    -0.72200
O294        O  0.21004426  0.70619460  0.21819320    -0.72900
O295        O  0.25106867  0.79665824  0.19977076    -0.72500
O296        O  0.30891248  0.72039380  0.22810616    -0.73000
O297        O  0.27914903  0.77617880  0.30907997    -0.72400
O298        O  0.22851141  0.69276334  0.28197537    -0.73200
O299        O  0.31184293  0.77134371  0.27618281    -0.72600
O300        O  0.22975227  0.72772413  0.31289885    -0.73000
O301        O  0.21485610  0.79104181  0.29335927    -0.73000
O302        O  0.20261885  0.80091462  0.24944733    -0.72700
C303        C  0.19599144  0.72287784  0.20289812     0.79000
C304        C  0.29925490  0.69587309  0.22359384     0.79500
C305        C  0.27757721  0.79861465  0.19690737     0.78500
C306        C  0.30429250  0.77891894  0.30060754     0.78900
C307        C  0.22449527  0.70231532  0.30653386     0.80000
C308        C  0.20042711  0.80488892  0.27576373     0.79100
Zn309      Zn  0.73906449  0.20948990  0.25399224     1.49700
Zn310      Zn  0.72574455  0.27379610  0.27092216     1.49400
Zn311      Zn  0.78914742  0.25426959  0.25768537     1.49100
Zn312      Zn  0.74443718  0.25786701  0.20779579     1.49500
O313        O  0.74953135  0.24893515  0.24767382    -1.82200
O314        O  0.70804754  0.20674999  0.28244816    -0.72800
O315        O  0.74949697  0.29700399  0.29781069    -0.72700
O316        O  0.80653478  0.21808223  0.27178728    -0.72200
O317        O  0.69833405  0.25088888  0.29434244    -0.72900
O318        O  0.77165440  0.18710864  0.26934717    -0.72500
O319        O  0.79300504  0.28275485  0.28875841    -0.73000
O320        O  0.78057711  0.27155252  0.19002863    -0.72400
O321        O  0.70317447  0.30055708  0.24646854    -0.73200
O322        O  0.81153990  0.26911887  0.22481976    -0.72600
O323        O  0.71620593  0.28900894  0.20319544    -0.73000
O324        O  0.72952140  0.22442867  0.18619940    -0.73000
O325        O  0.72500022  0.19098667  0.21846227    -0.72700
C326        C  0.69410086  0.22456740  0.29654269     0.79000
C327        C  0.77579363  0.29787430  0.30240902     0.79500
C328        C  0.79681033  0.19347213  0.27554327     0.78500
C329        C  0.80518869  0.27523162  0.19965592     0.78900
C330        C  0.70175666  0.30380161  0.22001856     0.80000
C331        C  0.72242124  0.19968848  0.19339320     0.79100
N332        N  0.99872953  0.99656706  0.45759701    -0.34700
N333        N  0.95496070  0.00066241  0.50029935    -0.55300
N334        N  0.99859277  0.00391516  0.54347245    -0.34700
N335        N  0.04231445  0.99956993  0.50073665    -0.55300
C336        C  0.97591898  0.99925655  0.44086796     0.28900
C337        C  0.02172920  0.99897348  0.44108475     0.28900
C338        C  0.97556817  0.00167820  0.55996078     0.28900
C339        C  0.02139124  0.00102205  0.56019902     0.28900
C340        C  0.93812802  0.99963187  0.47753211     0.37500
C341        C  0.93804135  0.00232617  0.52295393     0.37500
C342        C  0.05924908  0.99831410  0.47805643     0.37500
C343        C  0.05914482  0.00055278  0.52350279     0.37500
C344        C  0.98461104  0.00259006  0.41333228    -0.20000
C345        C  0.01334677  0.00244814  0.41347433    -0.20000
C346        C  0.98392508  0.99804296  0.58757122    -0.20000
C347        C  0.01268380  0.99762629  0.58771403    -0.20000
C348        C  0.91028425  0.00060109  0.48578661    -0.21000
C349        C  0.91022749  0.00235900  0.51451269    -0.21000
C350        C  0.08705510  0.99839341  0.48648326    -0.21000
C351        C  0.08699252  0.99984834  0.51521665    -0.21000
C352        C  0.94736165  0.99893020  0.44932388    -0.16400
C353        C  0.05020114  0.99813124  0.44977970    -0.16400
C354        C  0.04994717  0.00129303  0.55172921    -0.16400
C355        C  0.94710901  0.00283893  0.55122289    -0.16400
H356        H  0.97163339  0.00521134  0.39493115     0.16500
H357        H  0.02654364  0.00493386  0.39520616     0.16500
H358        H  0.97069380  0.99561462  0.60582447     0.16500
H359        H  0.02568015  0.99480234  0.60607528     0.16500
H360        H  0.89190851  0.00031783  0.47249789     0.14800
H361        H  0.89178360  0.00336882  0.52767476     0.14800
H362        H  0.10550003  0.99772991  0.47330333     0.14800
H363        H  0.10538450  0.00024921  0.52847853     0.14800
H364        H  0.99860338  0.99134161  0.47865204     0.28100
H365        H  0.99873519  0.00925175  0.52243640     0.28100
C366        C  0.10070596  0.02313617  0.39355263     0.05000
C367        C  0.08237664  0.02334932  0.41654561    -0.11100
C368        C  0.07188117  0.99793454  0.42736541     0.02500
C369        C  0.07997111  0.97235757  0.41508918    -0.09600
C370        C  0.09835473  0.97216195  0.39218139     0.05000
C371        C  0.10868251  0.99753666  0.38155425    -0.09100
H372        H  0.07567264  0.04313803  0.42551903     0.10600
H373        H  0.07148209  0.95278461  0.42299176     0.08200
H374        H  0.12261529  0.99738434  0.36359748     0.08000
Zn375      Zn  0.22634213  0.22415244  0.22766123     1.49700
Zn376      Zn  0.24577616  0.23737609  0.29104084     1.49400
Zn377      Zn  0.29043986  0.24205842  0.24146498     1.49100
Zn378      Zn  0.24182168  0.28758787  0.24649044     1.49500
O379        O  0.25095658  0.24767718  0.25152840    -1.82200
O380        O  0.20319666  0.19701421  0.25148564    -0.72800
O381        O  0.28169621  0.22345660  0.30872878    -0.72700
O382        O  0.29355064  0.21377154  0.21047559    -0.72200
O383        O  0.21754743  0.20631655  0.29486019    -0.72900
O384        O  0.24978972  0.20094636  0.20035982    -0.72500
O385        O  0.31266552  0.22673563  0.27402855    -0.73000
O386        O  0.27502966  0.30984947  0.23189874    -0.72400
O387        O  0.23075523  0.26990038  0.31341724    -0.73200
O388        O  0.30879762  0.27794300  0.22762834    -0.72600
O389        O  0.22761337  0.30483824  0.28257813    -0.73000
O390        O  0.21103245  0.29210165  0.21803454    -0.73000
O391        O  0.19950071  0.24871413  0.20499793    -0.72700
C392        C  0.20241005  0.19256253  0.27780405     0.79000
C393        C  0.30633406  0.22022429  0.29907641     0.79500
C394        C  0.27617127  0.19933654  0.19634910     0.78500
C395        C  0.29985505  0.30297732  0.22493034     0.78900
C396        C  0.22418336  0.29499838  0.30713012     0.80000
C397        C  0.19630303  0.27525977  0.20354479     0.79100
C398        C  0.02743740  0.39133225  0.10162017     0.05000
C399        C  0.00187167  0.38018202  0.11075909    -0.11100
C400        C  0.97648387  0.39181278  0.10174947     0.02500
C401        C  0.97663836  0.41489069  0.08346972    -0.09600
C402        C  0.00220187  0.42633521  0.07418355     0.05000
C403        C  0.02762543  0.41454149  0.08349640    -0.09100
H404        H  0.00172904  0.36209628  0.12458047     0.10600
H405        H  0.95701308  0.42353468  0.07595632     0.08200
H406        H  0.04737269  0.42288219  0.07594881     0.08000
C407        C  0.38950149  0.09890088  0.97655799     0.05000
C408        C  0.37882049  0.10742808  0.00248456    -0.11100
C409        C  0.39116750  0.09812512  0.02740396     0.02500
C410        C  0.41448205  0.08021071  0.02638902    -0.09600
C411        C  0.42523847  0.07134690  0.00040268     0.05000
C412        C  0.41268968  0.08084296  0.97549971    -0.09100
H413        H  0.36069610  0.12116143  0.00327488     0.10600
H414        H  0.42379110  0.07257102  0.04564219     0.08200
H415        H  0.42067755  0.07379491  0.95544949     0.08000
C416        C  0.52864490  0.10895055  0.40169932     0.05000
C417        C  0.50345308  0.11845885  0.39012172    -0.11100
C418        C  0.47804474  0.10580854  0.39747053     0.02500
C419        C  0.47776175  0.08326425  0.41630655    -0.09600
C420        C  0.50296191  0.07360481  0.42809353     0.05000
C421        C  0.52844963  0.08647865  0.42068938    -0.09100
H422        H  0.50356548  0.13611309  0.37575159     0.10600
H423        H  0.45803213  0.07375446  0.42239573     0.08200
H424        H  0.54787803  0.07932924  0.43004673     0.08000
C425        C  0.89855089  0.97393185  0.39180966     0.05000
C426        C  0.88981921  0.99949798  0.38033312    -0.11100
C427        C  0.89906724  0.02491430  0.39172282     0.02500
C428        C  0.91695448  0.02479484  0.41503904    -0.09600
C429        C  0.92587161  0.99917384  0.42672949     0.05000
C430        C  0.91656790  0.97373179  0.41501642    -0.09100
H431        H  0.87617134  0.99961081  0.36215719     0.10600
H432        H  0.92460311  0.04444113  0.42356186     0.08200
H433        H  0.92387682  0.95394748  0.42353727     0.08000
C434        C  0.60757818  0.10259464  0.97280050     0.05000
C435        C  0.58422867  0.08465426  0.97177118    -0.11100
C436        C  0.57212799  0.07457835  0.99672477     0.02500
C437        C  0.58347442  0.08283885  0.02266873    -0.09600
C438        C  0.60697501  0.10051193  0.02362140     0.05000
C439        C  0.61881134  0.11041519  0.99870824    -0.09100
H440        H  0.57600593  0.07788616  0.95172584     0.10600
H441        H  0.57470754  0.07458662  0.04192927     0.08200
H442        H  0.63715503  0.12386859  0.99947536     0.08000
C443        C  0.59787841  0.47481450  0.10903025     0.05000
C444        C  0.60863179  0.50010772  0.11934297    -0.11100
C445        C  0.60088745  0.52569162  0.10718756     0.02500
C446        C  0.58242388  0.52604073  0.08434593    -0.09600
C447        C  0.57137057  0.50075917  0.07388349     0.05000
C448        C  0.57921355  0.47512289  0.08630248    -0.09100
H449        H  0.62279164  0.49990948  0.13712126     0.10600
H450        H  0.57607041  0.54587068  0.07518654     0.08200
H451        H  0.57049704  0.45560797  0.07853705     0.08000
C452        C  0.89248052  0.39852300  0.52341424     0.05000
C453        C  0.88040427  0.38945957  0.49831689    -0.11100
C454        C  0.89060857  0.39907411  0.47258983     0.02500
C455        C  0.91339798  0.41775357  0.47192617    -0.09600
C456        C  0.92589623  0.42682861  0.49706980     0.05000
C457        C  0.91531864  0.41709343  0.52283379    -0.09100
H458        H  0.86257239  0.37531975  0.49882914     0.10600
H459        H  0.92106307  0.42562276  0.45205290     0.08200
H460        H  0.92440730  0.42450971  0.54227178     0.08000
C461        C  0.39357635  0.52341083  0.10470145     0.05000
C462        C  0.41331467  0.52449178  0.08292304    -0.11100
C463        C  0.42568872  0.49964374  0.07286639     0.02500
C464        C  0.41807488  0.47367546  0.08476071    -0.09600
C465        C  0.39822670  0.47256460  0.10645776     0.05000
C466        C  0.38594042  0.49743494  0.11616907    -0.09100
H467        H  0.41952660  0.54457657  0.07422843     0.10600
H468        H  0.42784629  0.45452194  0.07736399     0.08200
H469        H  0.37089147  0.49663231  0.13318288     0.08000
C470        C  0.02550300  0.60720193  0.10234472     0.05000
C471        C  0.02544778  0.58458562  0.08350307    -0.11100
C472        C  0.99990099  0.57351601  0.07365026     0.02500
C473        C  0.97445520  0.58523298  0.08288943    -0.09600
C474        C  0.97457756  0.60776200  0.10180970     0.05000
C475        C  0.00006852  0.61855076  0.11150606    -0.09100
H476        H  0.04511155  0.57600868  0.07602416     0.10600
H477        H  0.95474527  0.57713870  0.07499735     0.08200
H478        H  0.00011611  0.63616812  0.12590284     0.08000
C479        C  0.39397299  0.89724059  0.02669798     0.05000
C480        C  0.41709587  0.91549320  0.02623384    -0.11100
C481        C  0.42772595  0.92537676  0.00052046     0.02500
C482        C  0.41520372  0.91651776  0.97534394    -0.09600
C483        C  0.39225048  0.89809008  0.97588162     0.05000
C484        C  0.38181295  0.88850206  0.00152266    -0.09100
H485        H  0.42616636  0.92279644  0.04571961     0.10600
H486        H  0.42287025  0.92452194  0.95552005     0.08200
H487        H  0.36375889  0.87464349  0.00190524     0.08000
C488        C  0.52651586  0.89427881  0.39827866     0.05000
C489        C  0.50105963  0.88311160  0.38891022    -0.11100
C490        C  0.47565079  0.89367186  0.39903334     0.02500
C491        C  0.47565160  0.91576297  0.41836877    -0.09600
C492        C  0.50112872  0.92704239  0.42792309     0.05000
C493        C  0.52659320  0.91626769  0.41776243    -0.09100
H494        H  0.50103357  0.86581863  0.37413021     0.10600
H495        H  0.45599132  0.92376460  0.42647888     0.08200
H496        H  0.54629368  0.92466224  0.42536922     0.08000
C497        C  0.10960500  0.59963997  0.52588479     0.05000
C498        C  0.08635420  0.58155750  0.52588589    -0.11100
C499        C  0.07563164  0.57114516  0.50046641     0.02500
C500        C  0.08836485  0.57911045  0.47504504    -0.09600
C501        C  0.11174646  0.59702472  0.47510283     0.05000
C502        C  0.12218165  0.60724458  0.50051215    -0.09100
H503        H  0.07695309  0.57515564  0.54553951     0.10600
H504        H  0.08049782  0.57081433  0.45543238     0.08200
H505        H  0.14032982  0.62098180  0.50056013     0.08000
C506        C  0.60955440  0.90067333  0.97204701     0.05000
C507        C  0.58718297  0.91976837  0.97154135    -0.11100
C508        C  0.57450941  0.92831506  0.99672497     0.02500
C509        C  0.58449338  0.91775066  0.02236805    -0.09600
C510        C  0.60699289  0.89881875  0.02281832     0.05000
C511        C  0.61927492  0.89020620  0.99764987    -0.09100
H512        H  0.57984115  0.92819218  0.95176938     0.10600
H513        H  0.57513819  0.92472668  0.04184206     0.08200
H514        H  0.63676877  0.87565622  0.99801274     0.08000
C515        C  0.10530211  0.39654500  0.52758355     0.05000
C516        C  0.11663967  0.38568181  0.50282488    -0.11100
C517        C  0.10630161  0.39431879  0.47677575     0.02500
C518        C  0.08429305  0.41383343  0.47550162    -0.09600
C519        C  0.07277053  0.42476528  0.50033624     0.05000
C520        C  0.08336383  0.41602586  0.52635341    -0.09100
H521        H  0.13384537  0.37082142  0.50382554     0.10600
H522        H  0.07651049  0.42091697  0.45538318     0.08200
H523        H  0.07484841  0.42476546  0.54550649     0.08000
C524        C  0.02760393  0.38913637  0.90261238     0.05000
C525        C  0.02820458  0.41265083  0.92031686    -0.11100
C526        C  0.00300998  0.42559877  0.92869857     0.02500
C527        C  0.97729813  0.41501628  0.91884768    -0.09600
C528        C  0.97677356  0.39167018  0.90096116     0.05000
C529        C  0.00190552  0.37886736  0.89291540    -0.09100
H530        H  0.04804860  0.42034527  0.92826829     0.10600
H531        H  0.95781563  0.42456754  0.92559692     0.08200
H532        H  0.00143930  0.36061610  0.87933550     0.08000
C533        C  0.09988053  0.02627434  0.60847861     0.05000
C534        C  0.11062434  0.00069895  0.61814326    -0.11100
C535        C  0.10192925  0.97534948  0.60613710     0.02500
C536        C  0.08249359  0.97555595  0.58410270    -0.09600
C537        C  0.07161604  0.00113966  0.57417528     0.05000
C538        C  0.08034801  0.02651007  0.58650085    -0.09100
H539        H  0.12553414  0.00050189  0.63529651     0.10600
H540        H  0.07548291  0.95593856  0.57498409     0.08200
H541        H  0.07175294  0.04624978  0.57916319     0.08000
C542        C  0.52556037  0.10779318  0.60250014     0.05000
C543        C  0.52612363  0.08567630  0.58310899    -0.11100
C544        C  0.50093197  0.07357043  0.57372483     0.02500
C545        C  0.47521846  0.08379779  0.58380202    -0.09600
C546        C  0.47466586  0.10605441  0.60295748     0.05000
C547        C  0.49982649  0.11786510  0.61239292    -0.09100
H548        H  0.54598578  0.07810598  0.57508636     0.10600
H549        H  0.45575098  0.07485261  0.57622152     0.08200
H550        H  0.49936460  0.13519051  0.62712539     0.08000
C551        C  0.39938227  0.52791255  0.89254727     0.05000
C552        C  0.41744892  0.52733422  0.91564527    -0.11100
C553        C  0.42695044  0.50152694  0.92631545     0.02500
C554        C  0.41792785  0.47632490  0.91390929    -0.09600
C555        C  0.39965375  0.47700267  0.89091226     0.05000
C556        C  0.39049638  0.50278249  0.88030053    -0.09100
H557        H  0.42475171  0.54682054  0.92482347     0.10600
H558        H  0.42550547  0.45639296  0.92182770     0.08200
H559        H  0.37661770  0.50329894  0.86230615     0.08000
C560        C  0.89643305  0.97859353  0.60743013     0.05000
C561        C  0.91469484  0.97817210  0.58443245    -0.11100
C562        C  0.92542424  0.00342397  0.57357639     0.02500
C563        C  0.91753512  0.02910956  0.58573481    -0.09600
C564        C  0.89908986  0.02951654  0.60859010     0.05000
C565        C  0.88857601  0.00426570  0.61933358    -0.09100
H566        H  0.92126235  0.95830116  0.57553622     0.10600
H567        H  0.92621781  0.04858195  0.57779345     0.08200
H568        H  0.87468207  0.00456730  0.63731852     0.08000
C569        C  0.97190565  0.60796325  0.90190073     0.05000
C570        C  0.99694822  0.61951164  0.89190505    -0.11100
C571        C  0.02275320  0.60809937  0.89982569     0.02500
C572        C  0.02353968  0.58478040  0.91776078    -0.09600
C573        C  0.99846926  0.57311585  0.92808095     0.05000
C574        C  0.97260969  0.58479015  0.92002329    -0.09100
H575        H  0.99635608  0.63764959  0.87815614     0.10600
H576        H  0.04352537  0.57624172  0.92438576     0.08200
H577        H  0.95324798  0.57620849  0.92827036     0.08000
C578        C  0.52440952  0.89065109  0.59911523     0.05000
C579        C  0.52426273  0.91410379  0.58135915    -0.11100
C580        C  0.49872648  0.92643942  0.57327685     0.02500
C581        C  0.47332432  0.91521956  0.58327065    -0.09600
C582        C  0.47351686  0.89165405  0.60090777     0.05000
C583        C  0.49904382  0.87950306  0.60876276    -0.09100
H584        H  0.54384826  0.92240664  0.57336054     0.10600
H585        H  0.45357274  0.92431204  0.57666951     0.08200
H586        H  0.49916106  0.86117203  0.62226184     0.08000
C587        C  0.60028227  0.47616577  0.89263678     0.05000
C588        C  0.58185360  0.47628085  0.91551839    -0.11100
C589        C  0.57258405  0.50186423  0.92693207     0.02500
C590        C  0.58198643  0.52734055  0.91523512    -0.09600
C591        C  0.60024958  0.52715873  0.89218294     0.05000
C592        C  0.60939644  0.50157650  0.88108509    -0.09100
H593        H  0.57429200  0.45661179  0.92409339     0.10600
H594        H  0.57446808  0.54711602  0.92356950     0.08200
H595        H  0.62338870  0.50143690  0.86317028     0.08000
C596        C  0.89475851  0.60172686  0.52486563     0.05000
C597        C  0.91747277  0.58300313  0.52434648    -0.11100
C598        C  0.92822653  0.57340104  0.49861478     0.02500
C599        C  0.91613342  0.58286309  0.47342111    -0.09600
C600        C  0.89359166  0.60180539  0.47399905     0.05000
C601        C  0.88299528  0.61106979  0.49969819    -0.09100
H602        H  0.92633373  0.57537077  0.54380817     0.10600
H603        H  0.92400691  0.57519385  0.45355606     0.08200
H604        H  0.86536555  0.62545501  0.50011568     0.08000
C605        C  0.14889423  0.36185009  0.41005896     0.18900
C606        C  0.17185937  0.34486594  0.41702741    -0.10200
C607        C  0.18839747  0.33296926  0.39594615    -0.11000
C608        C  0.18212486  0.33800185  0.36772990     0.20500
C609        C  0.15915952  0.35498499  0.36071853    -0.13100
C610        C  0.14260104  0.36690430  0.38182967    -0.11300
C611        C  0.19857815  0.32482002  0.34607910     0.01500
C612        C  0.21128813  0.31222248  0.32819876    -0.31400
C613        C  0.13204077  0.37406901  0.43199502     0.02800
C614        C  0.11928562  0.38371579  0.45161457    -0.33000
H615        H  0.17693945  0.34077101  0.43876064     0.13900
H616        H  0.20595599  0.31972072  0.40164205     0.13700
H617        H  0.15396941  0.35886633  0.33897383     0.13600
H618        H  0.12490355  0.37996816  0.37615624     0.12600
C619        C  0.37164656  0.40314954  0.14934318     0.18900
C620        C  0.35100402  0.38561712  0.13794614    -0.10200
C621        C  0.33818219  0.36502749  0.15452026    -0.11000
C622        C  0.34583723  0.36174240  0.18268133     0.20500
C623        C  0.36683155  0.37895567  0.19401725    -0.13100
C624        C  0.37968173  0.39959364  0.17740449    -0.11300
C625        C  0.33147161  0.34119949  0.19982266     0.01500
C626        C  0.31784783  0.32387575  0.21244313    -0.31400
C627        C  0.38310240  0.42588807  0.13279106     0.02800
C628        C  0.39089877  0.44628434  0.11981031    -0.33000
H629        H  0.34443867  0.38820531  0.11638429     0.13900
H630        H  0.32197916  0.35192787  0.14547009     0.13700
H631        H  0.37296405  0.37671045  0.21574361     0.13600
H632        H  0.39548523  0.41309454  0.18657142     0.12600
C633        C  0.36787277  0.17973187  0.34202702     0.18900
C634        C  0.39167006  0.17292478  0.32624374    -0.10200
C635        C  0.41276538  0.15621563  0.33783089    -0.11000
C636        C  0.41018481  0.14616660  0.36527441     0.20500
C637        C  0.38650028  0.15312571  0.38119460    -0.13100
C638        C  0.36534509  0.16985678  0.36957460    -0.11300
C639        C  0.43235607  0.12956250  0.37723171     0.01500
C640        C  0.45236000  0.11736388  0.38669913    -0.31400
C641        C  0.34570150  0.19581850  0.32931470     0.02800
C642        C  0.32751665  0.20790921  0.31655924    -0.33000
H643        H  0.39381245  0.18036674  0.30490686     0.13900
H644        H  0.43107775  0.15113817  0.32540228     0.13700
H645        H  0.38440138  0.14562993  0.40251472     0.13600
H646        H  0.34700088  0.17491425  0.38195380     0.12600
C647        C  0.31580780  0.15204210  0.13736184     0.18900
C648        C  0.30408961  0.14459446  0.11151950    -0.10200
C649        C  0.32070898  0.13192483  0.09093981    -0.11000
C650        C  0.34916867  0.12660812  0.09602117     0.20500
C651        C  0.36082234  0.13366253  0.12202369    -0.13100
C652        C  0.34418034  0.14633464  0.14263249    -0.11300
C653        C  0.36638512  0.11505015  0.07400067     0.01500
C654        C  0.37899428  0.10659629  0.05374726    -0.31400
C655        C  0.29925134  0.16689506  0.15787645     0.02800
C656        C  0.28716647  0.18088941  0.17517882    -0.33000
H657        H  0.28225881  0.14901397  0.10710149     0.13900
H658        H  0.31147476  0.12668656  0.07088491     0.13700
H659        H  0.38280465  0.12978739  0.12619769     0.13600
H660        H  0.35354171  0.15212548  0.16247603     0.12600
C661        C  0.13665727  0.31450192  0.15628567     0.18900
C662        C  0.10833242  0.30744241  0.15952799    -0.10200
C663        C  0.08751387  0.32371974  0.14676719    -0.11000
C664        C  0.09481146  0.34723786  0.13066991     0.20500
C665        C  0.12317032  0.35405015  0.12697267    -0.13100
C666        C  0.14403428  0.33773820  0.13976205    -0.11300
C667        C  0.07301153  0.36461380  0.11879459     0.01500
C668        C  0.05317702  0.37790184  0.11026214    -0.31400
C669        C  0.15788744  0.29885284  0.17120728     0.02800
C670        C  0.17534042  0.28696323  0.18523133    -0.33000
H671        H  0.10231349  0.28964437  0.17232197     0.13900
H672        H  0.06568800  0.31821196  0.14981099     0.13700
H673        H  0.12911823  0.37216204  0.11459266     0.13600
H674        H  0.16584510  0.34351956  0.13716667     0.12600
C675        C  0.15610824  0.13275440  0.31768872     0.18900
C676        C  0.14946109  0.13829889  0.34576896    -0.10200
C677        C  0.13708265  0.11747734  0.36242781    -0.11000
C678        C  0.13127397  0.09096253  0.35110204     0.20500
C679        C  0.13757908  0.08556476  0.32292759    -0.13100
C680        C  0.14995852  0.10636530  0.30628587    -0.11300
C681        C  0.11960248  0.06893141  0.36833290     0.01500
C682        C  0.11056616  0.04895511  0.38109082    -0.31400
C683        C  0.17054933  0.15363548  0.30114833     0.02800
C684        C  0.18420886  0.17123842  0.28904327    -0.33000
H685        H  0.15424028  0.15856482  0.35489155     0.13900
H686        H  0.13238554  0.12193279  0.38416986     0.13700
H687        H  0.13325628  0.06514271  0.31392478     0.13600
H688        H  0.15510983  0.10173097  0.28468351     0.12600
C689        C  0.81280900  0.34471410  0.36377417     0.18900
C690        C  0.83565747  0.36186901  0.35675586    -0.10200
C691        C  0.85184172  0.37438679  0.37781556    -0.11000
C692        C  0.84531878  0.36983724  0.40606754     0.20500
C693        C  0.82211639  0.35314577  0.41309368    -0.13100
C694        C  0.80593432  0.34062103  0.39203219    -0.11300
C695        C  0.86277160  0.38156353  0.42787225     0.01500
C696        C  0.87655241  0.39027606  0.44726786    -0.31400
C697        C  0.79765622  0.32992014  0.34210095     0.02800
C698        C  0.78664080  0.31608356  0.32393808    -0.33000
H699        H  0.84129668  0.36512121  0.33502176     0.13900
H700        H  0.86968645  0.38722701  0.37207709     0.13700
H701        H  0.81681167  0.34944549  0.43484663     0.13600
H702        H  0.78842544  0.32732564  0.39779047     0.12600
C703        C  0.62646507  0.40536367  0.15038845     0.18900
C704        C  0.62241914  0.40323156  0.17941672    -0.10200
C705        C  0.63593962  0.38206813  0.19471653    -0.11000
C706        C  0.65361623  0.36294278  0.18107608     0.20500
C707        C  0.65717028  0.36474305  0.15198896    -0.13100
C708        C  0.64367708  0.38587504  0.13671569    -0.11300
C709        C  0.66908564  0.34219063  0.19681643     0.01500
C710        C  0.68341328  0.32482808  0.20847477    -0.31400
C711        C  0.61438383  0.42843367  0.13488921     0.02800
C712        C  0.60593546  0.44882960  0.12239986    -0.33000
H713        H  0.60927134  0.41823367  0.19028110     0.13900
H714        H  0.63302444  0.38094409  0.21718671     0.13700
H715        H  0.67079527  0.35012695  0.14118463     0.13600
H716        H  0.64710207  0.38734544  0.11433694     0.12600
C717        C  0.65043886  0.12622622  0.09248599     0.18900
C718        C  0.63894004  0.13082263  0.11908951    -0.10200
C719        C  0.65502241  0.14360934  0.14004805    -0.11000
C720        C  0.68269705  0.15188898  0.13454086     0.20500
C721        C  0.69441088  0.14666274  0.10813809    -0.13100
C722        C  0.67833693  0.13386653  0.08718992    -0.11300
C723        C  0.69838752  0.16719059  0.15541053     0.01500
C724        C  0.71023107  0.18137735  0.17273400    -0.31400
C725        C  0.63331538  0.11526015  0.07010491     0.02800
C726        C  0.62013800  0.10773969  0.04985132    -0.33000
H727        H  0.61739389  0.12510527  0.12343568     0.13900
H728        H  0.64568137  0.14760865  0.16033476     0.13700
H729        H  0.71572709  0.15303120  0.10355596     0.13600
H730        H  0.68745426  0.13051147  0.06668158     0.12600
C731        C  0.84349934  0.13423804  0.31618575     0.18900
C732        C  0.85250320  0.14023313  0.34349693    -0.10200
C733        C  0.86596102  0.11957229  0.35947046    -0.11000
C734        C  0.87047155  0.09278079  0.34823483     0.20500
C735        C  0.86193269  0.08695168  0.32074580    -0.13100
C736        C  0.84847588  0.10759881  0.30478284    -0.11300
C737        C  0.88239723  0.07076433  0.36523645     0.01500
C738        C  0.89078863  0.05081041  0.37840898    -0.31400
C739        C  0.82820567  0.15503029  0.30035452     0.02800
C740        C  0.81442391  0.17245228  0.28815616    -0.33000
H741        H  0.84871251  0.16071510  0.35259461     0.13900
H742        H  0.87236556  0.12432010  0.38070984     0.13700
H743        H  0.86520420  0.06628980  0.31184466     0.13600
H744        H  0.84155759  0.10265287  0.28374896     0.12600
C745        C  0.63580662  0.18746436  0.34679265     0.18900
C746        C  0.64243560  0.16025442  0.35586043    -0.10200
C747        C  0.62230940  0.14390338  0.36962458    -0.11000
C748        C  0.59542074  0.15467211  0.37443431     0.20500
C749        C  0.58899154  0.18214256  0.36600122    -0.13100
C750        C  0.60912150  0.19849583  0.35221511    -0.11300
C751        C  0.57387483  0.13708624  0.38633420     0.01500
C752        C  0.55427856  0.12322351  0.39440032    -0.31400
C753        C  0.65585120  0.20318114  0.33044855     0.02800
C754        C  0.67300337  0.21428324  0.31548073    -0.33000
H755        H  0.66294956  0.15143981  0.35169871     0.13900
H756        H  0.62750581  0.12267784  0.37591712     0.13700
H757        H  0.56822758  0.19066748  0.36949002     0.13600
H758        H  0.60367848  0.21944040  0.34522916     0.12600
C759        C  0.86473427  0.31769558  0.15521597     0.18900
C760        C  0.88185515  0.30622127  0.13428615    -0.10200
C761        C  0.90304614  0.32249998  0.12203013    -0.11000
C762        C  0.90723353  0.35036019  0.13059523     0.20500
C763        C  0.88986860  0.36192243  0.15125438    -0.13100
C764        C  0.86869734  0.34566328  0.16349418    -0.11300
C765        C  0.93015262  0.36657639  0.11920545     0.01500
C766        C  0.95050687  0.37905854  0.11068450    -0.31400
C767        C  0.84369880  0.30073800  0.16894095     0.02800
C768        C  0.82617327  0.28795194  0.18206086    -0.33000
H769        H  0.87907955  0.28463066  0.12772360     0.13900
H770        H  0.91641321  0.31324739  0.10618658     0.13700
H771        H  0.89295213  0.38335635  0.15818594     0.13600
H772        H  0.85566434  0.35478394  0.17968971     0.12600
C773        C  0.18613050  0.65337508  0.36540416     0.18900
C774        C  0.19893314  0.64610516  0.39080248    -0.10200
C775        C  0.18359863  0.63207031  0.41154635    -0.11000
C776        C  0.15535127  0.62522342  0.40704217     0.20500
C777        C  0.14276620  0.63188220  0.38136757    -0.13100
C778        C  0.15810046  0.64591065  0.36062483    -0.11300
C779        C  0.13890473  0.61312132  0.42941075     0.01500
C780        C  0.12571479  0.60482437  0.44939471    -0.31400
C781        C  0.20124008  0.66957653  0.34478040     0.02800
C782        C  0.21272533  0.68410097  0.32749508    -0.33000
H783        H  0.22056035  0.65178393  0.39478712     0.13900
H784        H  0.19357589  0.62714103  0.43132442     0.13700
H785        H  0.12094846  0.62681155  0.37763108     0.13600
H786        H  0.14793655  0.65144345  0.34110100     0.12600
C787        C  0.40603909  0.85274052  0.37097176     0.18900
C788        C  0.40321265  0.82414256  0.37736054    -0.10200
C789        C  0.38173872  0.80831520  0.36509083    -0.11000
C790        C  0.36299756  0.82102000  0.34636370     0.20500
C791        C  0.36558471  0.84972385  0.34036423    -0.13100
C792        C  0.38703942  0.86553100  0.35261688    -0.11300
C793        C  0.34190394  0.80455222  0.33224823     0.01500
C794        C  0.32461104  0.79194776  0.31870274    -0.31400
C795        C  0.42925788  0.86855477  0.38204878     0.02800
C796        C  0.44978027  0.88085164  0.39023948    -0.33000
H797        H  0.41788209  0.81399458  0.39141875     0.13900
H798        H  0.38004542  0.78613462  0.36982765     0.13700
H799        H  0.35130884  0.85977223  0.32584347     0.13600
H800        H  0.38910451  0.88757721  0.34740552     0.12600
C801        C  0.35117440  0.86903326  0.09518765     0.18900
C802        C  0.32191512  0.86805927  0.09232170    -0.10200
C803        C  0.30537565  0.85584506  0.11329439    -0.11000
C804        C  0.31799471  0.84452856  0.13727414     0.20500
C805        C  0.34719936  0.84592915  0.14034054    -0.13100
C806        C  0.36372910  0.85812718  0.11937692    -0.11300
C807        C  0.30133379  0.83025125  0.15812445     0.01500
C808        C  0.28913502  0.81669075  0.17570305    -0.31400
C809        C  0.36826198  0.88010619  0.07278396     0.02800
C810        C  0.38129241  0.88842518  0.05271724    -0.33000
H811        H  0.31193620  0.87632594  0.07368257     0.13900
H812        H  0.28285040  0.85480983  0.11059993     0.13700
H813        H  0.35723174  0.83716176  0.15872178     0.13600
H814        H  0.38629761  0.85864589  0.12182798     0.12600
C815        C  0.09379328  0.64905082  0.13276216     0.18900
C816        C  0.11456736  0.63627881  0.14914075    -0.10200
C817        C  0.13557015  0.65258520  0.16162520    -0.11000
C818        C  0.13595904  0.68180220  0.15787343     0.20500
C819        C  0.11530499  0.69455673  0.14131858    -0.13100
C820        C  0.09429621  0.67824180  0.12882442    -0.11300
C821        C  0.15701050  0.69858243  0.17181838     0.01500
C822        C  0.17468778  0.71105456  0.18504567    -0.31400
C823        C  0.07137539  0.63246687  0.12089121     0.02800
C824        C  0.05136244  0.61981294  0.11182418    -0.33000
H825        H  0.11435659  0.61378415  0.15250817     0.13900
H826        H  0.15132432  0.64244611  0.17446139     0.13700
H827        H  0.11525799  0.71710332  0.13832582     0.13600
H828        H  0.07827557  0.68841985  0.11635456     0.12600
C829        C  0.36255691  0.59182502  0.14612441     0.18900
C830        C  0.35509376  0.61752179  0.13386998    -0.10200
C831        C  0.34439863  0.63931720  0.15047471    -0.11000
C832        C  0.34112563  0.63558798  0.17945123     0.20500
C833        C  0.34877772  0.60996061  0.19168331    -0.13100
C834        C  0.35945479  0.58819882  0.17510404    -0.11300
C835        C  0.32871105  0.65747998  0.19639104     0.01500
C836        C  0.31653124  0.67525904  0.20978304    -0.31400
C837        C  0.37323793  0.56902699  0.12921383     0.02800
C838        C  0.38237138  0.54886523  0.11680751    -0.33000
H839        H  0.35735623  0.62063901  0.11151167     0.13900
H840        H  0.33841819  0.65894703  0.14068807     0.13700
H841        H  0.34621848  0.60669341  0.21398811     0.13600
H842        H  0.36511664  0.56846049  0.18486561     0.12600
C843        C  0.12529846  0.90379688  0.34833559     0.18900
C844        C  0.13494012  0.87880353  0.36047616    -0.10200
C845        C  0.14795018  0.85836701  0.34386294    -0.11000
C846        C  0.15141293  0.86278488  0.31501496     0.20500
C847        C  0.14120510  0.88750022  0.30279806    -0.13100
C848        C  0.12818359  0.90791621  0.31939940    -0.11300
C849        C  0.16681557  0.84267136  0.29841898     0.01500
C850        C  0.18132906  0.82568955  0.28644661    -0.31400
C851        C  0.11406811  0.92600350  0.36557681     0.02800
C852        C  0.10616350  0.94619808  0.37868948    -0.33000
H853        H  0.13296269  0.87538622  0.38281939     0.13900
H854        H  0.15584379  0.83940109  0.35360221     0.13700
H855        H  0.14383247  0.89125128  0.28057790     0.13600
H856        H  0.12093178  0.92719350  0.30977312     0.12600
C857        C  0.81956461  0.66108090  0.36536792     0.18900
C858        C  0.80660677  0.64385316  0.38532534    -0.10200
C859        C  0.82264444  0.63086729  0.40618971    -0.11000
C860        C  0.85173444  0.63500806  0.40721511     0.20500
C861        C  0.86464063  0.65248580  0.38742355    -0.13100
C862        C  0.84860410  0.66547050  0.36656126    -0.11300
C863        C  0.86811333  0.62190153  0.42901341     0.01500
C864        C  0.88070621  0.61183984  0.44854095    -0.31400
C865        C  0.80317998  0.67447137  0.34379477     0.02800
C866        C  0.79057054  0.68682375  0.32567244    -0.33000
H867        H  0.78415803  0.64045796  0.38475160     0.13900
H868        H  0.81236992  0.61763267  0.42153010     0.13700
H869        H  0.88705121  0.65609177  0.38813598     0.13600
H870        H  0.85883618  0.67891185  0.35136638     0.12600
C871        C  0.65815684  0.63419246  0.18228431     0.18900
C872        C  0.66675433  0.63056999  0.15445732    -0.10200
C873        C  0.65393931  0.61029028  0.13760527    -0.11000
C874        C  0.63239611  0.59354297  0.14847588     0.20500
C875        C  0.62351278  0.59742297  0.17620528    -0.13100
C876        C  0.63635140  0.61772312  0.19308264    -0.11300
C877        C  0.62042940  0.57140363  0.13175745     0.01500
C878        C  0.61114923  0.55141774  0.11930676    -0.31400
C879        C  0.67222619  0.65451161  0.19961101     0.02800
C880        C  0.68556831  0.67201289  0.21205597    -0.33000
H881        H  0.68359668  0.64320217  0.14589822     0.13900
H882        H  0.66109405  0.60740105  0.11627055     0.13700
H883        H  0.60696601  0.58448746  0.18487952     0.13600
H884        H  0.62952262  0.62033838  0.21455973     0.12600
C885        C  0.68008618  0.84236707  0.13322976     0.18900
C886        C  0.68927069  0.86695185  0.11992805    -0.10200
C887        C  0.67258501  0.87974181  0.09940729    -0.11000
C888        C  0.64660184  0.86806117  0.09208899     0.20500
C889        C  0.63717589  0.84382427  0.10580546    -0.13100
C890        C  0.65383732  0.83105337  0.12630882    -0.11300
C891        C  0.63051448  0.87988588  0.06935431     0.01500
C892        C  0.61859935  0.88891683  0.04892306    -0.31400
C893        C  0.69756795  0.82829868  0.15359212     0.02800
C894        C  0.71039240  0.81496660  0.17093064    -0.33000
H895        H  0.70945645  0.87597995  0.12510653     0.13900
H896        H  0.68016752  0.89841776  0.08888902     0.13700
H897        H  0.61720477  0.83450978  0.10029301     0.13600
H898        H  0.64643414  0.81210875  0.13647081     0.12600
C899        C  0.59423867  0.85228417  0.36793734     0.18900
C900        C  0.62137653  0.86302023  0.36456257    -0.10200
C901        C  0.64203818  0.84674581  0.35153231    -0.11000
C902        C  0.63560741  0.81970184  0.34185549     0.20500
C903        C  0.60864067  0.80879855  0.34577133    -0.13100
C904        C  0.58802044  0.82503982  0.35877867    -0.11300
C905        C  0.65616555  0.80367598  0.32667159     0.01500
C906        C  0.67312818  0.79106986  0.31282232    -0.31400
C907        C  0.57234311  0.86932639  0.37979601     0.02800
C908        C  0.55232670  0.88194231  0.38869011    -0.33000
H909        H  0.62641031  0.88406094  0.37155322     0.13900
H910        H  0.66282638  0.85541182  0.34855285     0.13700
H911        H  0.60342375  0.78796196  0.33831737     0.13600
H912        H  0.56709861  0.81653823  0.36126448     0.12600
C913        C  0.86866912  0.90619884  0.34906808     0.18900
C914        C  0.85402356  0.88415668  0.36185761    -0.10200
C915        C  0.84073761  0.86378580  0.34544281    -0.11000
C916        C  0.84201446  0.86534701  0.31614776     0.20500
C917        C  0.85694774  0.88718280  0.30335356    -0.13100
C918        C  0.87024105  0.90755600  0.31977240    -0.11300
C919        C  0.82729486  0.84498013  0.29938310     0.01500
C920        C  0.81375633  0.82760837  0.28694006    -0.31400
C921        C  0.88075341  0.92825584  0.36584002     0.02800
C922        C  0.88957681  0.94817229  0.37874360    -0.33000
H923        H  0.85251228  0.88296686  0.38446255     0.13900
H924        H  0.82917479  0.84703915  0.35557567     0.13700
H925        H  0.85800739  0.88865511  0.28073947     0.13600
H926        H  0.88136081  0.92459305  0.30963299     0.12600
C927        C  0.86708990  0.68652626  0.15652597     0.18900
C928        C  0.89159952  0.67989911  0.17128541    -0.10200
C929        C  0.91196162  0.66262784  0.15915109    -0.11000
C930        C  0.90797168  0.65176909  0.13217451     0.20500
C931        C  0.88357046  0.65855062  0.11727000    -0.13100
C932        C  0.86315314  0.67584798  0.12943831    -0.11300
C933        C  0.92929581  0.63419992  0.11984221     0.01500
C934        C  0.94887256  0.62089642  0.11083730    -0.31400
C935        C  0.84550341  0.70301153  0.16989118     0.02800
C936        C  0.82733096  0.71488210  0.18294527    -0.33000
H937        H  0.89484530  0.68786179  0.19228446     0.13900
H938        H  0.93078323  0.65766350  0.17084500     0.13700
H939        H  0.88029325  0.65040801  0.09634856     0.13600
H940        H  0.84423171  0.68067028  0.11785832     0.12600
C941        C  0.34224762  0.36693038  0.81770894     0.18900
C942        C  0.33772211  0.36881333  0.84665358    -0.10200
C943        C  0.35088247  0.38987274  0.86227200    -0.11000
C944        C  0.36866533  0.40916644  0.84904752     0.20500
C945        C  0.37329512  0.40722985  0.82011642    -0.13100
C946        C  0.36012447  0.38615439  0.80448505    -0.11300
C947        C  0.38118167  0.43161833  0.86493255     0.01500
C948        C  0.39041275  0.45151758  0.87755300    -0.31400
C949        C  0.32809252  0.34558643  0.80165491     0.02800
C950        C  0.31512418  0.32765604  0.78936845    -0.33000
H951        H  0.32386238  0.35414098  0.85710124     0.21500
H952        H  0.34698640  0.39127773  0.88457818     0.13700
H953        H  0.38684855  0.42215305  0.80962278     0.13600
H954        H  0.36370290  0.38498025  0.78211443     0.12600
C955        C  0.36236655  0.17807856  0.65660483     0.18900
C956        C  0.36783760  0.15093122  0.66657366    -0.10200
C957        C  0.38875098  0.13454805  0.65413352    -0.11000
C958        C  0.40428945  0.14520275  0.63161885     0.20500
C959        C  0.39833167  0.17206485  0.62117246    -0.13100
C960        C  0.37741324  0.18846171  0.63362546    -0.11300
C961        C  0.42756954  0.12946692  0.62052223     0.01500
C962        C  0.44840665  0.11778823  0.61219081    -0.31400
C963        C  0.34216212  0.19553472  0.67078112     0.02800
C964        C  0.32547371  0.20903742  0.68418362    -0.33000
H965        H  0.35634713  0.14266554  0.68432850     0.13900
H966        H  0.39323352  0.11387112  0.66247067     0.13700
H967        H  0.41028674  0.18057288  0.60384353     0.13600
H968        H  0.37338642  0.20940058  0.62572601     0.12600
C969        C  0.15655527  0.13504341  0.68432605     0.18900
C970        C  0.16487664  0.13092140  0.65646946    -0.10200
C971        C  0.15172405  0.11052808  0.63996980    -0.11000
C972        C  0.13009470  0.09409511  0.65117579     0.20500
C973        C  0.12155307  0.09837849  0.67896352    -0.13100
C974        C  0.13473034  0.11880626  0.69549415    -0.11300
C975        C  0.11776241  0.07189519  0.63467410     0.01500
C976        C  0.10878758  0.05197064  0.62182577    -0.31400
C977        C  0.17086412  0.15567637  0.70126172     0.02800
C978        C  0.18446715  0.17331912  0.71335138    -0.33000
H979        H  0.18173530  0.14329953  0.64758355     0.13900
H980        H  0.15866775  0.10733142  0.61860813     0.13700
H981        H  0.10497891  0.08569238  0.68794413     0.13600
H982        H  0.12810070  0.12173815  0.71699023     0.12600
C983        C  0.09532661  0.34424179  0.87542726     0.18900
C984        C  0.09186230  0.31518146  0.87203172    -0.10200
C985        C  0.11280753  0.29919429  0.85902041    -0.11000
C986        C  0.13733817  0.31218447  0.84932929     0.20500
C987        C  0.14104626  0.34110867  0.85332816    -0.13100
C988        C  0.12012557  0.35707424  0.86630659    -0.11300
C989        C  0.15796612  0.29644437  0.83373547     0.01500
C990        C  0.17530892  0.28529657  0.81902156    -0.31400
C991        C  0.07286128  0.36108462  0.88676938     0.02800
C992        C  0.05303108  0.37469210  0.89476198    -0.33000
H993        H  0.07274239  0.30500200  0.87888724     0.13900
H994        H  0.10960806  0.27688439  0.85597150     0.13700
H995        H  0.15984514  0.35143554  0.84583643     0.13600
H996        H  0.12303561  0.37950452  0.86868358     0.12600
C997        C  0.14547311  0.36921847  0.59765123     0.18900
C998        C  0.13610653  0.34543875  0.61214799    -0.10200
C999        C  0.15318421  0.33290686  0.63239141    -0.11000
C1000       C  0.17973940  0.34403879  0.63825059     0.20500
C1001       C  0.18888566  0.36820578  0.62420599    -0.13100
C1002       C  0.17177314  0.38076488  0.60393568    -0.11300
C1003       C  0.19758000  0.33004619  0.65820191     0.01500
C1004       C  0.21063157  0.31647961  0.67509699    -0.31400
C1005       C  0.12917354  0.38033832  0.57482491     0.02800
C1006       C  0.11718160  0.38830331  0.55405831    -0.33000
H1007       H  0.11590820  0.33621527  0.60735464     0.13900
H1008       H  0.14588949  0.31424016  0.64313111     0.13700
H1009       H  0.20935900  0.37702352  0.62856030     0.13600
H1010       H  0.17929677  0.39905530  0.59272208     0.12600
C1011       C  0.31773677  0.15691831  0.86571124     0.18900
C1012       C  0.34677917  0.16091368  0.86780508    -0.10200
C1013       C  0.36199894  0.14765860  0.88908675    -0.11000
C1014       C  0.34828319  0.13030592  0.90842373     0.20500
C1015       C  0.31926918  0.12610337  0.90619836    -0.13100
C1016       C  0.30403447  0.13937170  0.88489752    -0.11300
C1017       C  0.36374708  0.11783247  0.93120939     0.01500
C1018       C  0.37610989  0.10854196  0.95123919    -0.31400
C1019       C  0.30209330  0.17143111  0.84428943     0.02800
C1020       C  0.29036804  0.18485985  0.82631979    -0.33000
H1021       H  0.35760675  0.17449834  0.85316021     0.13900
H1022       H  0.38437673  0.15120316  0.89066180     0.13700
H1023       H  0.30839323  0.11285672  0.92110966     0.13600
H1024       H  0.28158967  0.13618055  0.88356381     0.12600
C1025       C  0.85006745  0.37045641  0.59209685     0.18900
C1026       C  0.86194524  0.35319237  0.61266326    -0.10200
C1027       C  0.84506781  0.34148999  0.63359981    -0.11000
C1028       C  0.81618497  0.34690447  0.63410714     0.20500
C1029       C  0.80431794  0.36445033  0.61374239    -0.13100
C1030       C  0.82122270  0.37618172  0.59278450    -0.11300
C1031       C  0.79886577  0.33337426  0.65488375     0.01500
C1032       C  0.78644450  0.32000856  0.67243676    -0.31400
C1033       C  0.86715759  0.38130958  0.56962790     0.02800
C1034       C  0.88005470  0.38961690  0.54949299    -0.33000
H1035       H  0.88415449  0.34846950  0.61229421     0.13900
H1036       H  0.85447246  0.32787045  0.64915917     0.13700
H1037       H  0.78201382  0.36872053  0.61382273     0.13600
H1038       H  0.81175542  0.38938008  0.57690680     0.12600
C1039       C  0.65673973  0.36581153  0.81927267     0.18900
C1040       C  0.64640793  0.35970994  0.84609323    -0.10200
C1041       C  0.63349804  0.38074909  0.86201607    -0.11000
C1042       C  0.63089071  0.40798008  0.85118467     0.20500
C1043       C  0.64104574  0.41398001  0.82429489    -0.13100
C1044       C  0.65393558  0.39297841  0.80840157    -0.11300
C1045       C  0.61860398  0.43010519  0.86772574     0.01500
C1046       C  0.60951012  0.45020696  0.88014885    -0.31400
C1047       C  0.67119994  0.34459163  0.80334187     0.02800
C1048       C  0.68461712  0.32725935  0.79070494    -0.33000
H1049       H  0.64860511  0.33881325  0.85479158     0.13900
H1050       H  0.62583416  0.37587208  0.88281146     0.13700
H1051       H  0.63925840  0.43497427  0.81573396     0.13600
H1052       H  0.66198265  0.39799670  0.78778128     0.12600
C1053       C  0.84823284  0.14027503  0.68500952     0.18900
C1054       C  0.85617973  0.11474041  0.69720294    -0.10200
C1055       C  0.86866931  0.09385147  0.68082238    -0.11000
C1056       C  0.87325485  0.09836352  0.65216928     0.20500
C1057       C  0.86591118  0.12415792  0.64011552    -0.13100
C1058       C  0.85343772  0.14506125  0.65650609    -0.11300
C1059       C  0.88397811  0.07588812  0.63504212     0.01500
C1060       C  0.89154490  0.05555985  0.62198889    -0.31400
C1061       C  0.83312155  0.16086161  0.70112948     0.02800
C1062       C  0.81878342  0.17815173  0.71275376    -0.33000
H1063       H  0.85214924  0.11074222  0.71917230     0.13900
H1064       H  0.87416865  0.07395330  0.69035203     0.13700
H1065       H  0.86924933  0.12787233  0.61798304     0.13600
H1066       H  0.84725976  0.16468715  0.64682704     0.12600
C1067       C  0.63723832  0.18036383  0.65791092     0.18900
C1068       C  0.62609967  0.15697720  0.67183169    -0.10200
C1069       C  0.60483356  0.14108705  0.65937389    -0.11000
C1070       C  0.59456902  0.14844761  0.63288346     0.20500
C1071       C  0.60597073  0.17161823  0.61876327    -0.13100
C1072       C  0.62727262  0.18753541  0.63124246    -0.11300
C1073       C  0.57150287  0.13299745  0.62088315     0.01500
C1074       C  0.55116824  0.12084245  0.61193813    -0.31400
C1075       C  0.65841721  0.19716367  0.67142399     0.02800
C1076       C  0.67581908  0.21018253  0.68437479    -0.33000
H1077       H  0.63362656  0.15122704  0.69245767     0.13900
H1078       H  0.59613399  0.12330885  0.67055613     0.13700
H1079       H  0.59814143  0.17759141  0.59831881     0.13600
H1080       H  0.63571491  0.20556801  0.62027287     0.12600
C1081       C  0.65127674  0.13451863  0.90650290     0.18900
C1082       C  0.66368472  0.11803613  0.88555761    -0.10200
C1083       C  0.68050388  0.13059652  0.86497296    -0.11000
C1084       C  0.68507689  0.15968814  0.86531166     0.20500
C1085       C  0.67268393  0.17609615  0.88627623    -0.13100
C1086       C  0.65590030  0.16357136  0.90679738    -0.11300
C1087       C  0.70169653  0.17309068  0.84385912     0.01500
C1088       C  0.71383538  0.18637332  0.82602766    -0.31400
C1089       C  0.63433291  0.12178558  0.92811729     0.02800
C1090       C  0.62111905  0.11235023  0.94756075    -0.33000
H1091       H  0.66037535  0.09553798  0.88515330     0.13900
H1092       H  0.68984306  0.11767868  0.84880827     0.13700
H1093       H  0.67592908  0.19860810  0.88670521     0.13600
H1094       H  0.64654582  0.17654726  0.92291156     0.12600
C1095       C  0.90815499  0.35271361  0.86812843     0.18900
C1096       C  0.90195333  0.35766557  0.83987922    -0.10200
C1097       C  0.88152941  0.34161440  0.82625722    -0.11000
C1098       C  0.86718149  0.32042887  0.84075690     0.20500
C1099       C  0.87317846  0.31561718  0.86909511    -0.13100
C1100       C  0.89364608  0.33169109  0.88273859    -0.11300
C1101       C  0.84621339  0.30394308  0.82646437     0.01500
C1102       C  0.82836689  0.29172378  0.81329472    -0.31400
C1103       C  0.93043676  0.36819642  0.88150166     0.02800
C1104       C  0.95065014  0.37996870  0.89119762    -0.33000
H1105       H  0.91312843  0.37372071  0.82830290     0.13900
H1106       H  0.87704303  0.34561495  0.80437629     0.13700
H1107       H  0.86217857  0.29936999  0.88056392     0.13600
H1108       H  0.89835955  0.32753147  0.90453892     0.12600
C1109       C  0.14983936  0.63272867  0.59371510     0.18900
C1110       C  0.13719361  0.65102398  0.61291273    -0.10200
C1111       C  0.15337673  0.66419420  0.63356859    -0.11000
C1112       C  0.18231636  0.65917910  0.63517460     0.20500
C1113       C  0.19493972  0.64085930  0.61600368    -0.13100
C1114       C  0.17875975  0.62768992  0.59535589    -0.11300
C1115       C  0.19892383  0.67305455  0.65635066     0.01500
C1116       C  0.21124518  0.68579868  0.67444906    -0.31400
C1117       C  0.13353220  0.61998693  0.57162481     0.02800
C1118       C  0.12143982  0.61008805  0.55169505    -0.33000
H1119       H  0.11491283  0.65527116  0.61178131     0.13900
H1120       H  0.14335423  0.67838160  0.64819878     0.13700
H1121       H  0.21727270  0.63685957  0.61693181     0.13600
H1122       H  0.18883680  0.61375270  0.58052910     0.12600
C1123       C  0.36532512  0.81595342  0.65852721     0.18900
C1124       C  0.39349141  0.80772298  0.65928669    -0.10200
C1125       C  0.41400501  0.82428544  0.64642136    -0.11000
C1126       C  0.40652916  0.84923244  0.63273979     0.20500
C1127       C  0.37833789  0.85747365  0.63189510    -0.13100
C1128       C  0.35778689  0.84088066  0.64478450    -0.11300
C1129       C  0.42803092  0.86633733  0.62006879     0.01500
C1130       C  0.44777662  0.87906967  0.61060875    -0.31400
C1131       C  0.34439503  0.79948910  0.67287553     0.02800
C1132       C  0.32673089  0.78728963  0.68629499    -0.33000
H1133       H  0.39962123  0.78864701  0.67002560     0.13900
H1134       H  0.43573571  0.81773681  0.64730592     0.13700
H1135       H  0.37229157  0.87675186  0.62147496     0.13600
H1136       H  0.33609588  0.84759497  0.64424908     0.12600
C1137       C  0.13463800  0.68129515  0.84506683     0.18900
C1138       C  0.11273175  0.69494804  0.85910706    -0.10200
C1139       C  0.09109937  0.67929764  0.87136925    -0.11000
C1140       C  0.09124584  0.64989716  0.86968761     0.20500
C1141       C  0.11333164  0.63624525  0.85596487    -0.13100
C1142       C  0.13495515  0.65188596  0.84371459    -0.11300
C1143       C  0.06830154  0.63385985  0.88120796     0.01500
C1144       C  0.04821340  0.62124871  0.89011210    -0.31400
C1145       C  0.15605835  0.69734203  0.83089219     0.02800
C1146       C  0.17360462  0.70980170  0.81750735    -0.33000
H1147       H  0.11215637  0.71765873  0.86021200     0.13900
H1148       H  0.07409464  0.69012150  0.88183173     0.13700
H1149       H  0.11364935  0.61355506  0.85442479     0.13600
H1150       H  0.15169212  0.64106770  0.83282819     0.12600
C1151       C  0.34418097  0.63824261  0.81894201     0.18900
C1152       C  0.34448337  0.61043478  0.80948657    -0.10200
C1153       C  0.35709602  0.58951860  0.82566786    -0.11000
C1154       C  0.36944073  0.59627527  0.85141587     0.20500
C1155       C  0.36932973  0.62412463  0.86084178    -0.13100
C1156       C  0.35668998  0.64508695  0.84462428    -0.11300
C1157       C  0.38152358  0.57430979  0.86819363     0.01500
C1158       C  0.39037892  0.55408868  0.88051781    -0.31400
C1159       C  0.32978278  0.65938996  0.80295269     0.02800
C1160       C  0.31605350  0.67676087  0.79076250    -0.33000
H1161       H  0.33467828  0.60487594  0.78979133     0.13900
H1162       H  0.35697445  0.56802515  0.81824315     0.13700
H1163       H  0.37872459  0.62955493  0.88076888     0.13600
H1164       H  0.35636731  0.66650861  0.85223783     0.12600
C1165       C  0.34753207  0.87008172  0.90858831     0.18900
C1166       C  0.31875143  0.86584464  0.91291383    -0.10200
C1167       C  0.30223460  0.85387339  0.89181460    -0.11000
C1168       C  0.31440809  0.84608895  0.86626350     0.20500
C1169       C  0.34313213  0.85051546  0.86188496    -0.13100
C1170       C  0.35963690  0.86247477  0.88296911    -0.11300
C1171       C  0.29790765  0.83230159  0.84502281     0.01500
C1172       C  0.28577413  0.81900117  0.82724452    -0.31400
C1173       C  0.36472977  0.88130470  0.93077369     0.02800
C1174       C  0.37827279  0.88964090  0.95045565    -0.33000
H1175       H  0.30916231  0.87148534  0.93269281     0.13900
H1176       H  0.28010798  0.85036448  0.89554875     0.13700
H1177       H  0.35283581  0.84438365  0.84230944     0.13600
H1178       H  0.38186427  0.86548224  0.87941799     0.12600
C1179       C  0.13335891  0.90556386  0.64456132     0.18900
C1180       C  0.12168719  0.89811763  0.67046770    -0.10200
C1181       C  0.13404182  0.87703092  0.68673509    -0.11000
C1182       C  0.15817276  0.86327502  0.67721263     0.20500
C1183       C  0.16955590  0.87033662  0.65105881    -0.13100
C1184       C  0.15720004  0.89143887  0.63478711    -0.11300
C1185       C  0.17183644  0.84263295  0.69458967     0.01500
C1186       C  0.18458775  0.82565241  0.70837420    -0.31400
C1187       C  0.12172329  0.92868209  0.62887036     0.02800
C1188       C  0.11240634  0.94927179  0.61740336    -0.33000
H1189       H  0.10333324  0.90895333  0.67831038     0.13900
H1190       H  0.12505599  0.87178116  0.70690337     0.13700
H1191       H  0.18822450  0.85985921  0.64346507     0.13600
H1192       H  0.16650026  0.89706130  0.61486030     0.12600
C1193       C  0.85354888  0.63164193  0.59358203     0.18900
C1194       C  0.86646375  0.64454535  0.61659179    -0.10200
C1195       C  0.85014614  0.65750320  0.63729205    -0.11000
C1196       C  0.82081264  0.65766853  0.63510700     0.20500
C1197       C  0.80791157  0.64433523  0.61235950    -0.13100
C1198       C  0.82421283  0.63138247  0.59168424    -0.11300
C1199       C  0.80408671  0.67244380  0.65557058     0.01500
C1200       C  0.79103204  0.68590757  0.67260476    -0.31400
C1201       C  0.87018819  0.61985530  0.57120379     0.02800
C1202       C  0.88256838  0.61097654  0.55096915    -0.33000
H1203       H  0.88910421  0.64499479  0.61829115     0.13900
H1204       H  0.86040647  0.66777441  0.65474243     0.13700
H1205       H  0.78529086  0.64434208  0.61036962     0.13600
H1206       H  0.81395249  0.62157641  0.57397072     0.12600
C1207       C  0.63019442  0.59546400  0.84997366     0.18900
C1208       C  0.62659552  0.59625980  0.82082438    -0.10200
C1209       C  0.63980082  0.61712194  0.80487109    -0.11000
C1210       C  0.65669424  0.63729179  0.81798138     0.20500
C1211       C  0.65997456  0.63669971  0.84714714    -0.13100
C1212       C  0.64678902  0.61586036  0.86308042    -0.11300
C1213       C  0.67145406  0.65806010  0.80163738     0.01500
C1214       C  0.68511954  0.67546653  0.78929879    -0.31400
C1215       C  0.61807246  0.57295768  0.86622272     0.02800
C1216       C  0.60922410  0.55292818  0.87900951    -0.33000
H1217       H  0.61394412  0.58052646  0.81040351     0.13900
H1218       H  0.63715198  0.61729453  0.78234084     0.13700
H1219       H  0.67303851  0.65211957  0.85752859     0.13600
H1220       H  0.64987436  0.61540435  0.88554968     0.12600
C1221       C  0.59247844  0.84808749  0.62850529     0.18900
C1222       C  0.58571244  0.82321663  0.64269056    -0.10200
C1223       C  0.60660568  0.80780164  0.65634663    -0.11000
C1224       C  0.63445449  0.81712218  0.65591372     0.20500
C1225       C  0.64134934  0.84173376  0.64129195    -0.13100
C1226       C  0.62041604  0.85718387  0.62762220    -0.11300
C1227       C  0.65563353  0.80215077  0.67151536     0.01500
C1228       C  0.67325068  0.79055976  0.68554515    -0.31400
C1229       C  0.57042714  0.86464379  0.61602794     0.02800
C1230       C  0.55033373  0.87739956  0.60735406    -0.33000
H1231       H  0.56419367  0.81599144  0.64359196     0.13900
H1232       H  0.60096771  0.78888403  0.66762548     0.13700
H1233       H  0.66279299  0.84921489  0.64085818     0.13600
H1234       H  0.62593002  0.87639797  0.61679214     0.12600
C1235       C  0.65453400  0.86940270  0.90677633     0.18900
C1236       C  0.65504137  0.84005709  0.90488136    -0.10200
C1237       C  0.67262921  0.82683156  0.88554159    -0.11000
C1238       C  0.68990626  0.84284463  0.86797807     0.20500
C1239       C  0.68952366  0.87221549  0.86991976    -0.13100
C1240       C  0.67190685  0.88547252  0.88932156    -0.11300
C1241       C  0.70678130  0.82899773  0.84708739     0.01500
C1242       C  0.71840574  0.81589500  0.82883621    -0.31400
C1243       C  0.63697981  0.88268670  0.92746166     0.02800
C1244       C  0.62337863  0.89196288  0.94665708    -0.33000
H1245       H  0.64186251  0.82739970  0.91838726     0.13900
H1246       H  0.67260312  0.80412646  0.88414107     0.13700
H1247       H  0.70266364  0.88482846  0.85634450     0.13600
H1248       H  0.67184905  0.90817220  0.89072429     0.12600
C1249       C  0.86803066  0.90886071  0.64835947     0.18900
C1250       C  0.87193909  0.90820695  0.67745460    -0.10200
C1251       C  0.86003288  0.88666025  0.69346955    -0.11000
C1252       C  0.84413736  0.86564561  0.68047881     0.20500
C1253       C  0.84084321  0.86589019  0.65129392    -0.13100
C1254       C  0.85274379  0.88744315  0.63527883    -0.11300
C1255       C  0.82991233  0.84472614  0.69707209     0.01500
C1256       C  0.81635632  0.82735335  0.70955973    -0.31400
C1257       C  0.87857711  0.93220436  0.63225216     0.02800
C1258       C  0.88682681  0.95279227  0.62000184    -0.33000
H1259       H  0.88369541  0.92465961  0.68781591     0.13900
H1260       H  0.86271078  0.88672519  0.71599514     0.13700
H1261       H  0.82857410  0.84977158  0.64099884     0.13600
H1262       H  0.84954961  0.88771600  0.61282009     0.12600
C1263       C  0.86597383  0.68414850  0.84252716     0.18900
C1264       C  0.89458967  0.68763933  0.83705087    -0.10200
C1265       C  0.91432703  0.67120184  0.85115011    -0.11000
C1266       C  0.90558916  0.65112812  0.87076882     0.20500
C1267       C  0.87697088  0.64778931  0.87647704    -0.13100
C1268       C  0.85719103  0.66426823  0.86235138    -0.11300
C1269       C  0.92623317  0.63376707  0.88434639     0.01500
C1270       C  0.94581872  0.62071951  0.89361500    -0.31400
C1271       C  0.84564031  0.70008202  0.82692776     0.02800
C1272       C  0.82835984  0.71201972  0.81287191    -0.33000
H1273       H  0.90161440  0.70281572  0.82166567     0.13900
H1274       H  0.93640121  0.67393165  0.84654087     0.13700
H1275       H  0.86996405  0.63231642  0.89156667     0.13600
H1276       H  0.83508507  0.66129342  0.86662922     0.12600
loop_ 
_geom_bond_atom_site_label_1 
_geom_bond_atom_site_label_2 
_geom_bond_distance 
_geom_bond_site_symmetry_2 
_ccdc_geom_bond_type 
N1            C6   1.354       .  A
N1            C5   1.354       .  A
N1           H33   1.034       .  S
N2            C9   1.352       .  A
N2           C10   1.352   1_545  A
N3            C8   1.354       .  A
N3            C7   1.354       .  A
N3           H34   1.033       .  S
N4           C11   1.353       .  A
N4           C12   1.353   1_545  A
C5           C13   1.387       .  A
C5           C21   1.418       .  A
C6           C22   1.418       .  A
C6           C14   1.388       .  A
C7           C15   1.388       .  A
C7           C24   1.418       .  A
C8           C23   1.418       .  A
C8           C16   1.388       .  A
C9           C21   1.414       .  A
C9           C17   1.386       .  A
C10          C24   1.415       .  A
C10          C18   1.387       .  A
C11          C19   1.386       .  A
C11          C22   1.417       .  A
C12          C20   1.386       .  A
C12          C23   1.417       .  A
C13          C14   1.374       .  A
C13          H25   1.082       .  S
C14          H26   1.082       .  S
C15          C16   1.373       .  A
C15          H27   1.082       .  S
C16          H28   1.082       .  S
C17          C18   1.373   1_545  A
C17          H29   1.082       .  S
C18          H30   1.082       .  S
C19          C20   1.375   1_545  A
C19          H31   1.082       .  S
C20          H32   1.082       .  S
C21         C420   1.484       .  S
C22         C544   1.486       .  S
C23         C580   1.487       .  S
C24         C492   1.484       .  S
N35          C40   1.358       .  A
N35          C39   1.357       .  A
N35          H67   1.031       .  S
N36          C43   1.353   1_455  A
N36          C44   1.354       .  A
N37          C42   1.356       .  A
N37          C41   1.357       .  A
N37          H68   1.033       .  S
N38          C45   1.353       .  A
N38          C46   1.352   1_655  A
C39          C47   1.388       .  A
C39          C55   1.423       .  A
C40          C56   1.423       .  A
C40          C48   1.387       .  A
C41          C49   1.388       .  A
C41          C58   1.423       .  A
C42          C57   1.421       .  A
C42          C50   1.387       .  A
C43          C55   1.421       .  A
C43          C51   1.387       .  A
C44          C58   1.420       .  A
C44          C52   1.386       .  A
C45          C53   1.387       .  A
C45          C56   1.418       .  A
C46          C54   1.387       .  A
C46          C57   1.417       .  A
C47          C48   1.372       .  A
C47          H59   1.082       .  S
C48          H60   1.082       .  S
C49          C50   1.372       .  A
C49          H61   1.082       .  S
C50          H62   1.082       .  S
C51          C52   1.376   1_655  A
C51          H63   1.082       .  S
C52          H64   1.082       .  S
C53          C54   1.374   1_655  A
C53          H65   1.082       .  S
C54          H66   1.082       .  S
C55         C598   1.491       .  S
C56         C456   1.492       .  S
C57         C519   1.486       .  S
C58         C499   1.493       .  S
N69          C74   1.355       .  A
N69          C73   1.354       .  A
N69         H101   1.036       .  S
N70          C77   1.353       .  A
N70          C78   1.353   1_556  A
N71          C76   1.355       .  A
N71          C75   1.356       .  A
N71         H102   1.036       .  S
N72          C79   1.354   1_554  A
N72          C80   1.353       .  A
C73          C81   1.388       .  A
C73          C89   1.419       .  A
C74          C90   1.419       .  A
C74          C82   1.388       .  A
C75          C83   1.387       .  A
C75          C92   1.419       .  A
C76          C91   1.420       .  A
C76          C84   1.388       .  A
C77          C89   1.416       .  A
C77          C85   1.386       .  A
C78          C92   1.416       .  A
C78          C86   1.386       .  A
C79          C87   1.386       .  A
C79          C90   1.418       .  A
C80          C88   1.387       .  A
C80          C91   1.418       .  A
C81          C82   1.372       .  A
C81          H93   1.082       .  S
C82          H94   1.082       .  S
C83          C84   1.375       .  A
C83          H95   1.082       .  S
C84          H96   1.082       .  S
C85          C86   1.375   1_556  A
C85          H97   1.082       .  S
C86          H98   1.082       .  S
C87          C88   1.376   1_556  A
C87          H99   1.082       .  S
C88         H100   1.082       .  S
C89         C553   1.485       .  S
C90         C589   1.489       .  S
C91         C447   1.489       .  S
C92         C463   1.490       .  S
N103        C108   1.356   1_655  A
N103        C107   1.355   1_654  A
N103        H135   1.036       .  S
N104        C111   1.354   1_455  A
N104        C112   1.354   1_455  A
N105        C110   1.356       .  A
N105        C109   1.355   1_554  A
N105        H136   1.033   1_455  S
N106        C113   1.353   1_455  A
N106        C114   1.353   1_455  A
C107        C115   1.388       .  A
C107        C123   1.419   1_455  A
C108        C124   1.419   1_455  A
C108        C116   1.387       .  A
C109        C117   1.388       .  A
C109        C126   1.421       .  A
C110        C125   1.421       .  A
C110        C118   1.387       .  A
C111        C123   1.418       .  A
C111        C119   1.386       .  A
C112        C126   1.419   1_655  A
C112        C120   1.387       .  A
C113        C121   1.386       .  A
C113        C124   1.417       .  A
C114        C122   1.386       .  A
C114        C125   1.418   1_655  A
C115        C116   1.373   1_556  A
C115        H127   1.082       .  S
C116        H128   1.082       .  S
C117        C118   1.372   1_556  A
C117        H129   1.082       .  S
C118        H130   1.082       .  S
C119        C120   1.376       .  A
C119        H131   1.082       .  S
C120        H132   1.082       .  S
C121        C122   1.375       .  A
C121        H133   1.082       .  S
C122        H134   1.082       .  S
C123        C573   1.488       .  S
C124        C472   1.490       .  S
C125        C402   1.490       .  S
C126        C526   1.491       .  S
N137        C142   1.356   1_556  A
N137        C141   1.355   1_566  A
N137        H169   1.036       .  S
N138        C145   1.353       .  A
N138        C146   1.354       .  A
N139        C144   1.354   1_545  A
N139        C143   1.355       .  A
N139        H170   1.038       .  S
N140        C147   1.354       .  A
N140        C148   1.352       .  A
C141        C149   1.388       .  A
C141        C157   1.421   1_554  A
C142        C158   1.420   1_554  A
C142        C150   1.387       .  A
C143        C151   1.388   1_556  A
C143        C160   1.421       .  A
C144        C159   1.419       .  A
C144        C152   1.387   1_556  A
C145        C157   1.419       .  A
C145        C153   1.387       .  A
C146        C160   1.418       .  A
C146        C154   1.386       .  A
C147        C155   1.386       .  A
C147        C158   1.417       .  A
C148        C156   1.387       .  A
C148        C159   1.417       .  A
C149        C150   1.372   1_545  A
C149        H161   1.082       .  S
C150        H162   1.082       .  S
C151        C152   1.372   1_545  A
C151        H163   1.082       .  S
C152        H164   1.082       .  S
C153        C154   1.376       .  A
C153        H165   1.082       .  S
C154        H166   1.082       .  S
C155        C156   1.375       .  A
C155        H167   1.082       .  S
C156        H168   1.082       .  S
C157        C411   1.488   1_556  S
C158        C481   1.491   1_556  S
C159        C508   1.486       .  S
C160        C436   1.491       .  S
Zn171       O175   1.960       .  S
Zn171       O176   2.023       .  S
Zn171       O180   2.025       .  S
Zn171       O187   2.005       .  S
Zn172       O175   1.962       .  S
Zn172       O177   2.025       .  S
Zn172       O179   2.027       .  S
Zn172       O183   2.010       .  S
Zn173       O175   1.962       .  S
Zn173       O178   2.023       .  S
Zn173       O181   2.019       .  S
Zn173       O184   2.002       .  S
Zn174       O175   1.981       .  S
Zn174       O182   2.031       .  S
Zn174       O185   2.037       .  S
Zn174       O186   2.039       .  S
O176        C188   1.273       .  A
O177        C189   1.273       .  A
O178        C190   1.272       .  A
O179        C188   1.273       .  A
O180        C190   1.272       .  A
O181        C189   1.272       .  A
O182        C191   1.274       .  A
O183        C192   1.271       .  A
O184        C191   1.270       .  A
O185        C192   1.274       .  A
O186        C193   1.275       .  A
O187        C193   1.270       .  A
C188       C1228   1.439       .  S
C189       C1214   1.438       .  S
C190       C1200   1.440       .  S
C191       C1272   1.434       .  S
C192       C1242   1.437       .  S
C193       C1256   1.437       .  S
Zn194       O198   1.960       .  S
Zn194       O199   2.026       .  S
Zn194       O203   2.006       .  S
Zn194       O210   2.024       .  S
Zn195       O198   1.960       .  S
Zn195       O200   1.999       .  S
Zn195       O202   2.025       .  S
Zn195       O206   2.016       .  S
Zn196       O198   1.982       .  S
Zn196       O201   2.046       .  S
Zn196       O204   2.036       .  S
Zn196       O207   2.042       .  S
Zn197       O198   1.961       .  S
Zn197       O205   2.001       .  S
Zn197       O208   2.025       .  S
Zn197       O209   2.014       .  S
O199        C211   1.273       .  A
O200        C212   1.270       .  A
O201        C213   1.275       .  A
O202        C211   1.272       .  A
O203        C213   1.270       .  A
O204        C212   1.275       .  A
O205        C214   1.270       .  A
O206        C215   1.272       .  A
O207        C214   1.275       .  A
O208        C215   1.272       .  A
O209        C216   1.272       .  A
O210        C216   1.273       .  A
C211       C1146   1.440       .  S
C212       C1160   1.434       .  S
C213       C1116   1.440       .  S
C214       C1132   1.437       .  S
C215       C1172   1.437       .  S
C216       C1186   1.437       .  S
Zn217       O221   1.962       .  S
Zn217       O222   2.021       .  S
Zn217       O226   2.022       .  S
Zn217       O233   2.006       .  S
Zn218       O221   1.960       .  S
Zn218       O223   2.016       .  S
Zn218       O225   2.024       .  S
Zn218       O229   2.007       .  S
Zn219       O221   1.960       .  S
Zn219       O224   2.017       .  S
Zn219       O227   2.021       .  S
Zn219       O230   2.005       .  S
Zn220       O221   1.979       .  S
Zn220       O228   2.043       .  S
Zn220       O231   2.041       .  S
Zn220       O232   2.032       .  S
O222        C234   1.272       .  A
O223        C235   1.272       .  A
O224        C236   1.272       .  A
O225        C234   1.272       .  A
O226        C236   1.272       .  A
O227        C235   1.272       .  A
O228        C237   1.275       .  A
O229        C238   1.271       .  A
O230        C237   1.270       .  A
O231        C238   1.275       .  A
O232        C239   1.274       .  A
O233        C239   1.271       .  A
C234       C1032   1.438       .  S
C235       C1048   1.436       .  S
C236       C1076   1.436       .  S
C237       C1088   1.439       .  S
C238       C1102   1.439       .  S
C239       C1062   1.435       .  S
Zn240       O244   1.979       .  S
Zn240       O245   2.038       .  S
Zn240       O249   2.035       .  S
Zn240       O256   2.041       .  S
Zn241       O244   1.962       .  S
Zn241       O246   2.014       .  S
Zn241       O248   2.012       .  S
Zn241       O252   2.021       .  S
Zn242       O244   1.965       .  S
Zn242       O247   2.009       .  S
Zn242       O250   2.027       .  S
Zn242       O253   2.024       .  S
Zn243       O244   1.962       .  S
Zn243       O251   2.020       .  S
Zn243       O254   2.022       .  S
Zn243       O255   2.010       .  S
O245        C257   1.274       .  A
O246        C258   1.271       .  A
O247        C259   1.271       .  A
O248        C257   1.271       .  A
O249        C259   1.274       .  A
O250        C258   1.273       .  A
O251        C260   1.272       .  A
O252        C261   1.272       .  A
O253        C260   1.273       .  A
O254        C261   1.273       .  A
O255        C262   1.271       .  A
O256        C262   1.275       .  A
C257        C990   1.440       .  S
C258        C950   1.437       .  S
C259       C1020   1.438       .  S
C260        C964   1.437       .  S
C261       C1004   1.436       .  S
C262        C978   1.440       .  S
Zn263       O267   1.961       .  S
Zn263       O268   2.026       .  S
Zn263       O272   2.007       .  S
Zn263       O279   2.017       .  S
Zn264       O267   1.959       .  S
Zn264       O269   1.994       .  S
Zn264       O271   2.010       .  S
Zn264       O275   2.009       .  S
Zn265       O267   1.979       .  S
Zn265       O270   2.045       .  S
Zn265       O273   2.040       .  S
Zn265       O276   2.050       .  S
Zn266       O267   1.960       .  S
Zn266       O274   2.008       .  S
Zn266       O277   2.021       .  S
Zn266       O278   2.016       .  S
O268        C280   1.272       .  A
O269        C281   1.269       .  A
O270        C282   1.275       .  A
O271        C280   1.270       .  A
O272        C282   1.271       .  A
O273        C281   1.275       .  A
O274        C283   1.271       .  A
O275        C284   1.270       .  A
O276        C283   1.276       .  A
O277        C284   1.272       .  A
O278        C285   1.272       .  A
O279        C285   1.272       .  A
C280        C866   1.437       .  S
C281        C920   1.435       .  S
C282        C936   1.439       .  S
C283        C894   1.441       .  S
C284        C906   1.434       .  S
C285        C880   1.434       .  S
Zn286       O290   1.984       .  S
Zn286       O291   2.048       .  S
Zn286       O295   2.040       .  S
Zn286       O302   2.046       .  S
Zn287       O290   1.962       .  S
Zn287       O292   2.020       .  S
Zn287       O294   2.010       .  S
Zn287       O298   2.022       .  S
Zn288       O290   1.967       .  S
Zn288       O293   2.009       .  S
Zn288       O296   2.037       .  S
Zn288       O299   2.028       .  S
Zn289       O290   1.965       .  S
Zn289       O297   2.027       .  S
Zn289       O300   2.022       .  S
Zn289       O301   2.008       .  S
O291        C303   1.275       .  A
O292        C304   1.272       .  A
O293        C305   1.272       .  A
O294        C303   1.271       .  A
O295        C305   1.275       .  A
O296        C304   1.274       .  A
O297        C306   1.273       .  A
O298        C307   1.273       .  A
O299        C306   1.273       .  A
O300        C307   1.273       .  A
O301        C308   1.271       .  A
O302        C308   1.275       .  A
C303        C822   1.441       .  S
C304        C836   1.442       .  S
C305        C808   1.439       .  S
C306        C794   1.439       .  S
C307        C782   1.438       .  S
C308        C850   1.440       .  S
Zn309       O313   1.967       .  S
Zn309       O314   2.013       .  S
Zn309       O318   2.023       .  S
Zn309       O325   2.027       .  S
Zn310       O313   1.981       .  S
Zn310       O315   2.039       .  S
Zn310       O317   2.037       .  S
Zn310       O321   2.036       .  S
Zn311       O313   1.966       .  S
Zn311       O316   2.028       .  S
Zn311       O319   2.020       .  S
Zn311       O322   2.026       .  S
Zn312       O313   1.966       .  S
Zn312       O320   2.029       .  S
Zn312       O323   2.016       .  S
Zn312       O324   2.027       .  S
O314        C326   1.272       .  A
O315        C327   1.274       .  A
O316        C328   1.273       .  A
O317        C326   1.274       .  A
O318        C328   1.273       .  A
O319        C327   1.272       .  A
O320        C329   1.273       .  A
O321        C330   1.274       .  A
O322        C329   1.273       .  A
O323        C330   1.272       .  A
O324        C331   1.273       .  A
O325        C331   1.273       .  A
C326        C754   1.439       .  S
C327        C698   1.442       .  S
C328        C740   1.439       .  S
C329        C768   1.440       .  S
C330        C710   1.440       .  S
C331        C724   1.440       .  S
N332        C337   1.356   1_655  A
N332        C336   1.356       .  A
N332        H364   1.036       .  S
N333        C340   1.353   1_545  A
N333        C341   1.352       .  A
N334        C339   1.357   1_655  A
N334        C338   1.356       .  A
N334        H365   1.036       .  S
N335        C342   1.353       .  A
N335        C343   1.352   1_565  A
C336        C344   1.388   1_565  A
C336        C352   1.421       .  A
C337        C353   1.421       .  A
C337        C345   1.388   1_565  A
C338        C346   1.388   1_545  A
C338        C355   1.422       .  A
C339        C354   1.421       .  A
C339        C347   1.387   1_545  A
C340        C352   1.418       .  A
C340        C348   1.386   1_565  A
C341        C355   1.418       .  A
C341        C349   1.387       .  A
C342        C350   1.386       .  A
C342        C353   1.418       .  A
C343        C351   1.387   1_545  A
C343        C354   1.418       .  A
C344        C345   1.371   1_655  A
C344        H356   1.082       .  S
C345        H357   1.082       .  S
C346        C347   1.372   1_655  A
C346        H358   1.082       .  S
C347        H359   1.082       .  S
C348        C349   1.374       .  A
C348        H360   1.082       .  S
C349        H361   1.082       .  S
C350        C351   1.374       .  A
C350        H362   1.082       .  S
C351        H363   1.082   1_565  S
C352        C429   1.489       .  S
C353        C368   1.488       .  S
C354        C537   1.489       .  S
C355        C562   1.487       .  S
C366        C367   1.404       .  A
C366        C371   1.400   1_545  A
C366        C682   1.445       .  S
C367        C368   1.408   1_545  A
C367        H372   1.084       .  S
C368        C369   1.406       .  A
C369        C370   1.402       .  A
C369        H373   1.084       .  S
C370        C371   1.400       .  A
C370        C852   1.444       .  S
C371        H374   1.085       .  S
Zn375       O379   1.984       .  S
Zn375       O380   2.045       .  S
Zn375       O384   2.043       .  S
Zn375       O391   2.044       .  S
Zn376       O379   1.965       .  S
Zn376       O381   2.022       .  S
Zn376       O383   2.009       .  S
Zn376       O387   2.014       .  S
Zn377       O379   1.962       .  S
Zn377       O382   2.007       .  S
Zn377       O385   2.019       .  S
Zn377       O388   2.031       .  S
Zn378       O379   1.965       .  S
Zn378       O386   2.029       .  S
Zn378       O389   2.026       .  S
Zn378       O390   2.013       .  S
O380        C392   1.275       .  A
O381        C393   1.272       .  A
O382        C394   1.271       .  A
O383        C392   1.271       .  A
O384        C394   1.275       .  A
O385        C393   1.272       .  A
O386        C395   1.273       .  A
O387        C396   1.272       .  A
O388        C395   1.273       .  A
O389        C396   1.273       .  A
O390        C397   1.271       .  A
O391        C397   1.275       .  A
C392        C684   1.440       .  S
C393        C642   1.436       .  S
C394        C656   1.439       .  S
C395        C626   1.443       .  S
C396        C612   1.437       .  S
C397        C670   1.441       .  S
C398        C399   1.400       .  A
C398        C403   1.404       .  A
C398        C668   1.445       .  S
C399        C400   1.400   1_455  A
C399        H404   1.085       .  S
C400        C401   1.403       .  A
C400        C766   1.444       .  S
C401        C402   1.407   1_655  A
C401        H405   1.084       .  S
C402        C403   1.409       .  A
C403        H406   1.084       .  S
C407        C408   1.399   1_556  A
C407        C412   1.402       .  A
C407       C1018   1.443       .  S
C408        C409   1.400       .  A
C408        H413   1.085       .  S
C409        C410   1.403       .  A
C409        C654   1.443       .  S
C410        C411   1.408       .  A
C410        H414   1.084       .  S
C411        C412   1.406   1_554  A
C412        H415   1.084       .  S
C416        C417   1.398       .  A
C416        C421   1.403       .  A
C416        C752   1.442       .  S
C417        C418   1.398       .  A
C417        H422   1.085       .  S
C418        C419   1.401       .  A
C418        C640   1.438       .  S
C419        C420   1.405       .  A
C419        H423   1.084       .  S
C420        C421   1.407       .  A
C421        H424   1.084       .  S
C425        C426   1.399       .  A
C425        C430   1.403       .  A
C425        C922   1.442       .  S
C426        C427   1.399   1_565  A
C426        H431   1.085       .  S
C427        C428   1.403       .  A
C427        C738   1.443       .  S
C428        C429   1.408   1_545  A
C428        H432   1.084       .  S
C429        C430   1.407       .  A
C430        H433   1.084       .  S
C434        C435   1.405       .  A
C434        C439   1.399       .  A
C434       C1090   1.444       .  S
C435        C436   1.408       .  A
C435        H440   1.084       .  S
C436        C437   1.408   1_556  A
C437        C438   1.403       .  A
C437        H441   1.084       .  S
C438        C439   1.399   1_554  A
C438        C726   1.443       .  S
C439        H442   1.085       .  S
C443        C444   1.399       .  A
C443        C448   1.404       .  A
C443        C712   1.445       .  S
C444        C445   1.399       .  A
C444        H449   1.085       .  S
C445        C446   1.402       .  A
C445        C878   1.441       .  S
C446        C447   1.406       .  A
C446        H450   1.084       .  S
C447        C448   1.408       .  A
C448        H451   1.084       .  S
C452        C453   1.398       .  A
C452        C457   1.403       .  A
C452       C1034   1.443       .  S
C453        C454   1.398       .  A
C453        H458   1.085       .  S
C454        C455   1.405       .  A
C454        C696   1.445       .  S
C455        C456   1.409       .  A
C455        H459   1.084       .  S
C456        C457   1.408       .  A
C457        H460   1.084       .  S
C461        C462   1.404       .  A
C461        C466   1.401       .  A
C461        C838   1.446       .  S
C462        C463   1.407       .  A
C462        H467   1.084       .  S
C463        C464   1.408       .  A
C464        C465   1.405       .  A
C464        H468   1.084       .  S
C465        C466   1.401       .  A
C465        C628   1.447       .  S
C466        H469   1.085       .  S
C470        C471   1.404       .  A
C470        C475   1.399       .  A
C470        C824   1.445       .  S
C471        C472   1.409   1_455  A
C471        H476   1.084       .  S
C472        C473   1.407       .  A
C473        C474   1.403       .  A
C473        H477   1.084       .  S
C474        C475   1.399   1_655  A
C474        C934   1.443       .  S
C475        H478   1.085       .  S
C479        C480   1.405       .  A
C479        C484   1.399       .  A
C479        C810   1.444       .  S
C480        C481   1.409       .  A
C480        H485   1.084       .  S
C481        C482   1.408   1_554  A
C482        C483   1.403       .  A
C482        H486   1.084       .  S
C483        C484   1.398   1_556  A
C483       C1174   1.443       .  S
C484        H487   1.085       .  S
C488        C489   1.399       .  A
C488        C493   1.401       .  A
C488        C908   1.439       .  S
C489        C490   1.399       .  A
C489        H494   1.085       .  S
C490        C491   1.400       .  A
C490        C796   1.440       .  S
C491        C492   1.405       .  A
C491        H495   1.084       .  S
C492        C493   1.405       .  A
C493        H496   1.084       .  S
C497        C498   1.404       .  A
C497        C502   1.400       .  A
C497       C1118   1.444       .  S
C498        C499   1.408       .  A
C498        H503   1.084       .  S
C499        C500   1.409       .  A
C500        C501   1.404       .  A
C500        H504   1.084       .  S
C501        C502   1.399       .  A
C501        C780   1.445       .  S
C502        H505   1.085       .  S
C506        C507   1.403       .  A
C506        C511   1.399       .  A
C506       C1244   1.441       .  S
C507        C508   1.406       .  A
C507        H512   1.084       .  S
C508        C509   1.407   1_556  A
C509        C510   1.402       .  A
C509        H513   1.084       .  S
C510        C511   1.399   1_554  A
C510        C892   1.443       .  S
C511        H514   1.085       .  S
C515        C516   1.400       .  A
C515        C520   1.400       .  A
C515       C1006   1.440       .  S
C516        C517   1.400       .  A
C516        H521   1.085       .  S
C517        C518   1.404       .  A
C517        C614   1.443       .  S
C518        C519   1.407       .  A
C518        H522   1.084       .  S
C519        C520   1.404       .  A
C520        H523   1.084       .  S
C524        C525   1.404       .  A
C524        C529   1.399       .  A
C524        C992   1.444       .  S
C525        C526   1.409       .  A
C525        H530   1.084       .  S
C526        C527   1.407   1_455  A
C527        C528   1.403       .  A
C527        H531   1.084       .  S
C528        C529   1.399   1_655  A
C528       C1104   1.443       .  S
C529        H532   1.085       .  S
C533        C534   1.400       .  A
C533        C538   1.404       .  A
C533        C976   1.444       .  S
C534        C535   1.400   1_545  A
C534        H539   1.085       .  S
C535        C536   1.403       .  A
C535       C1188   1.443       .  S
C536        C537   1.407   1_565  A
C536        H540   1.084       .  S
C537        C538   1.407       .  A
C538        H541   1.084       .  S
C542        C543   1.403       .  A
C542        C547   1.400       .  A
C542       C1074   1.443       .  S
C543        C544   1.406       .  A
C543        H548   1.084       .  S
C544        C545   1.405       .  A
C545        C546   1.401       .  A
C545        H549   1.084       .  S
C546        C547   1.400       .  A
C546        C962   1.441       .  S
C547        H550   1.085       .  S
C551        C552   1.400       .  A
C551        C556   1.398       .  A
C551       C1158   1.438       .  S
C552        C553   1.406       .  A
C552        H557   1.084       .  S
C553        C554   1.406       .  A
C554        C555   1.403       .  A
C554        H558   1.084       .  S
C555        C556   1.398       .  A
C555        C948   1.441       .  S
C556        H559   1.085       .  S
C560        C561   1.402       .  A
C560        C565   1.400   1_565  A
C560       C1258   1.442       .  S
C561        C562   1.406   1_565  A
C561        H566   1.084       .  S
C562        C563   1.406       .  A
C563        C564   1.402       .  A
C563        H567   1.084       .  S
C564        C565   1.400       .  A
C564       C1060   1.442       .  S
C565        H568   1.085       .  S
C569        C570   1.399       .  A
C569        C574   1.403       .  A
C569       C1270   1.440       .  S
C570        C571   1.398   1_655  A
C570        H575   1.085       .  S
C571        C572   1.403       .  A
C571       C1144   1.443       .  S
C572        C573   1.408   1_455  A
C572        H576   1.084       .  S
C573        C574   1.407       .  A
C574        H577   1.084       .  S
C578        C579   1.402       .  A
C578        C583   1.399       .  A
C578       C1230   1.443       .  S
C579        C580   1.407       .  A
C579        H584   1.084       .  S
C580        C581   1.408       .  A
C581        C582   1.403       .  A
C581        H585   1.084       .  S
C582        C583   1.400       .  A
C582       C1130   1.443       .  S
C583        H586   1.085       .  S
C587        C588   1.402       .  A
C587        C592   1.399       .  A
C587       C1046   1.442       .  S
C588        C589   1.407       .  A
C588        H593   1.084       .  S
C589        C590   1.409       .  A
C590        C591   1.404       .  A
C590        H594   1.084       .  S
C591        C592   1.399       .  A
C591       C1216   1.444       .  S
C592        H595   1.085       .  S
C596        C597   1.404       .  A
C596        C601   1.399       .  A
C596       C1202   1.445       .  S
C597        C598   1.408       .  A
C597        H602   1.084       .  S
C598        C599   1.408       .  A
C599        C600   1.404       .  A
C599        H603   1.084       .  S
C600        C601   1.399       .  A
C600        C864   1.444       .  S
C601        H604   1.085       .  S
C605        C606   1.402       .  A
C605        C610   1.402       .  A
C605        C613   1.443       .  S
C606        C607   1.399       .  A
C606        H615   1.083       .  S
C607        C608   1.401       .  A
C607        H616   1.084       .  S
C608        C609   1.402       .  A
C608        C611   1.442       .  S
C609        C610   1.401       .  A
C609        H617   1.083       .  S
C610        H618   1.083       .  S
C611        C612   1.207       .  T
C613        C614   1.208       .  T
C619        C620   1.401       .  A
C619        C624   1.404       .  A
C619        C627   1.448       .  S
C620        C621   1.400       .  A
C620        H629   1.083       .  S
C621        C622   1.402       .  A
C621        H630   1.083       .  S
C622        C623   1.403       .  A
C622        C625   1.448       .  S
C623        C624   1.404       .  A
C623        H631   1.083       .  S
C624        H632   1.083       .  S
C625        C626   1.211       .  T
C627        C628   1.211       .  T
C633        C634   1.401       .  A
C633        C638   1.402       .  A
C633        C641   1.440       .  S
C634        C635   1.397       .  A
C634        H643   1.084       .  S
C635        C636   1.400       .  A
C635        H644   1.084       .  S
C636        C637   1.402       .  A
C636        C639   1.439       .  S
C637        C638   1.401       .  A
C637        H645   1.083       .  S
C638        H646   1.083       .  S
C639        C640   1.205       .  T
C641        C642   1.206       .  T
C647        C648   1.401       .  A
C647        C652   1.403       .  A
C647        C655   1.444       .  S
C648        C649   1.400       .  A
C648        H657   1.083       .  S
C649        C650   1.402       .  A
C649        H658   1.083       .  S
C650        C651   1.402       .  A
C650        C653   1.444       .  S
C651        C652   1.401       .  A
C651        H659   1.083       .  S
C652        H660   1.083       .  S
C653        C654   1.208       .  T
C655        C656   1.208       .  T
C661        C662   1.401       .  A
C661        C666   1.404       .  A
C661        C669   1.445       .  S
C662        C663   1.400       .  A
C662        H671   1.083       .  S
C663        C664   1.402       .  A
C663        H672   1.083       .  S
C664        C665   1.402       .  A
C664        C667   1.445       .  S
C665        C666   1.403       .  A
C665        H673   1.083       .  S
C666        H674   1.083       .  S
C667        C668   1.209       .  T
C669        C670   1.209       .  T
C675        C676   1.403       .  A
C675        C680   1.401       .  A
C675        C683   1.445       .  S
C676        C677   1.401       .  A
C676        H685   1.083       .  S
C677        C678   1.402       .  A
C677        H686   1.083       .  S
C678        C679   1.403       .  A
C678        C681   1.445       .  S
C679        C680   1.400       .  A
C679        H687   1.083       .  S
C680        H688   1.083       .  S
C681        C682   1.209       .  T
C683        C684   1.209       .  T
C689        C690   1.403       .  A
C689        C694   1.402       .  A
C689        C697   1.446       .  S
C690        C691   1.401       .  A
C690        H699   1.083       .  S
C691        C692   1.401       .  A
C691        H700   1.083       .  S
C692        C693   1.403       .  A
C692        C695   1.446       .  S
C693        C694   1.401       .  A
C693        H701   1.084       .  S
C694        H702   1.083       .  S
C695        C696   1.209       .  T
C697        C698   1.210       .  T
C703        C704   1.403       .  A
C703        C708   1.401       .  A
C703        C711   1.445       .  S
C704        C705   1.402       .  A
C704        H713   1.083       .  S
C705        C706   1.402       .  A
C705        H714   1.083       .  S
C706        C707   1.402       .  A
C706        C709   1.444       .  S
C707        C708   1.400       .  A
C707        H715   1.083       .  S
C708        H716   1.083       .  S
C709        C710   1.209       .  T
C711        C712   1.209       .  T
C717        C718   1.401       .  A
C717        C722   1.403       .  A
C717        C725   1.443       .  S
C718        C719   1.401       .  A
C718        H727   1.083       .  S
C719        C720   1.403       .  A
C719        H728   1.083       .  S
C720        C721   1.402       .  A
C720        C723   1.444       .  S
C721        C722   1.400       .  A
C721        H729   1.083       .  S
C722        H730   1.084       .  S
C723        C724   1.209       .  T
C725        C726   1.208       .  T
C731        C732   1.403       .  A
C731        C736   1.401       .  A
C731        C739   1.444       .  S
C732        C733   1.401       .  A
C732        H741   1.083       .  S
C733        C734   1.401       .  A
C733        H742   1.083       .  S
C734        C735   1.402       .  A
C734        C737   1.443       .  S
C735        C736   1.400       .  A
C735        H743   1.084       .  S
C736        H744   1.083       .  S
C737        C738   1.208       .  T
C739        C740   1.208       .  T
C745        C746   1.402       .  A
C745        C750   1.401       .  A
C745        C753   1.443       .  S
C746        C747   1.400       .  A
C746        H755   1.083       .  S
C747        C748   1.401       .  A
C747        H756   1.083       .  S
C748        C749   1.403       .  A
C748        C751   1.442       .  S
C749        C750   1.401       .  A
C749        H757   1.084       .  S
C750        H758   1.083       .  S
C751        C752   1.207       .  T
C753        C754   1.208       .  T
C759        C760   1.402       .  A
C759        C764   1.403       .  A
C759        C767   1.445       .  S
C760        C761   1.402       .  A
C760        H769   1.083       .  S
C761        C762   1.403       .  A
C761        H770   1.083       .  S
C762        C763   1.401       .  A
C762        C765   1.445       .  S
C763        C764   1.400       .  A
C763        H771   1.083       .  S
C764        H772   1.083       .  S
C765        C766   1.209       .  T
C767        C768   1.209       .  T
C773        C774   1.401       .  A
C773        C778   1.402       .  A
C773        C781   1.444       .  S
C774        C775   1.401       .  A
C774        H783   1.083       .  S
C775        C776   1.403       .  A
C775        H784   1.083       .  S
C776        C777   1.402       .  A
C776        C779   1.445       .  S
C777        C778   1.401       .  A
C777        H785   1.083       .  S
C778        H786   1.083       .  S
C779        C780   1.209       .  T
C781        C782   1.208       .  T
C787        C788   1.402       .  A
C787        C792   1.400       .  A
C787        C795   1.440       .  S
C788        C789   1.401       .  A
C788        H797   1.084       .  S
C789        C790   1.402       .  A
C789        H798   1.083       .  S
C790        C791   1.402       .  A
C790        C793   1.443       .  S
C791        C792   1.399       .  A
C791        H799   1.083       .  S
C792        H800   1.084       .  S
C793        C794   1.208       .  T
C795        C796   1.206       .  T
C801        C802   1.403       .  A
C801        C806   1.401       .  A
C801        C809   1.444       .  S
C802        C803   1.401       .  A
C802        H811   1.083       .  S
C803        C804   1.401       .  A
C803        H812   1.083       .  S
C804        C805   1.403       .  A
C804        C807   1.444       .  S
C805        C806   1.400       .  A
C805        H813   1.083       .  S
C806        H814   1.083       .  S
C807        C808   1.208       .  T
C809        C810   1.209       .  T
C815        C816   1.401       .  A
C815        C820   1.403       .  A
C815        C823   1.445       .  S
C816        C817   1.401       .  A
C816        H825   1.083       .  S
C817        C818   1.403       .  A
C817        H826   1.083       .  S
C818        C819   1.402       .  A
C818        C821   1.446       .  S
C819        C820   1.402       .  A
C819        H827   1.083       .  S
C820        H828   1.083       .  S
C821        C822   1.210       .  T
C823        C824   1.209       .  T
C829        C830   1.402       .  A
C829        C834   1.402       .  A
C829        C837   1.446       .  S
C830        C831   1.403       .  A
C830        H839   1.083       .  S
C831        C832   1.404       .  A
C831        H840   1.083       .  S
C832        C833   1.401       .  A
C832        C835   1.447       .  S
C833        C834   1.401       .  A
C833        H841   1.083       .  S
C834        H842   1.083       .  S
C835        C836   1.210       .  T
C837        C838   1.210       .  T
C843        C844   1.402       .  A
C843        C848   1.402       .  A
C843        C851   1.444       .  S
C844        C845   1.401       .  A
C844        H853   1.083       .  S
C845        C846   1.403       .  A
C845        H854   1.083       .  S
C846        C847   1.401       .  A
C846        C849   1.445       .  S
C847        C848   1.400       .  A
C847        H855   1.083       .  S
C848        H856   1.083       .  S
C849        C850   1.209       .  T
C851        C852   1.208       .  T
C857        C858   1.401       .  A
C857        C862   1.402       .  A
C857        C865   1.442       .  S
C858        C859   1.400       .  A
C858        H867   1.083       .  S
C859        C860   1.403       .  A
C859        H868   1.083       .  S
C860        C861   1.402       .  A
C860        C863   1.444       .  S
C861        C862   1.400       .  A
C861        H869   1.083       .  S
C862        H870   1.084       .  S
C863        C864   1.208       .  T
C865        C866   1.207       .  T
C871        C872   1.402       .  A
C871        C876   1.401       .  A
C871        C879   1.440       .  S
C872        C873   1.398       .  A
C872        H881   1.084       .  S
C873        C874   1.400       .  A
C873        H882   1.083       .  S
C874        C875   1.403       .  A
C874        C877   1.441       .  S
C875        C876   1.400       .  A
C875        H883   1.083       .  S
C876        H884   1.083       .  S
C877        C878   1.207       .  T
C879        C880   1.206       .  T
C885        C886   1.402       .  A
C885        C890   1.403       .  A
C885        C893   1.446       .  S
C886        C887   1.402       .  A
C886        H895   1.083       .  S
C887        C888   1.403       .  A
C887        H896   1.083       .  S
C888        C889   1.401       .  A
C888        C891   1.444       .  S
C889        C890   1.400       .  A
C889        H897   1.083       .  S
C890        H898   1.083       .  S
C891        C892   1.208       .  T
C893        C894   1.210       .  T
C899        C900   1.401       .  A
C899        C904   1.401       .  A
C899        C907   1.439       .  S
C900        C901   1.400       .  A
C900        H909   1.083       .  S
C901        C902   1.403       .  A
C901        H910   1.083       .  S
C902        C903   1.400       .  A
C902        C905   1.439       .  S
C903        C904   1.397       .  A
C903        H911   1.083       .  S
C904        H912   1.084       .  S
C905        C906   1.206       .  T
C907        C908   1.206       .  T
C913        C914   1.401       .  A
C913        C918   1.403       .  A
C913        C921   1.442       .  S
C914        C915   1.399       .  A
C914        H923   1.083       .  S
C915        C916   1.402       .  A
C915        H924   1.084       .  S
C916        C917   1.401       .  A
C916        C919   1.441       .  S
C917        C918   1.400       .  A
C917        H925   1.083       .  S
C918        H926   1.083       .  S
C919        C920   1.206       .  T
C921        C922   1.207       .  T
C927        C928   1.401       .  A
C927        C932   1.403       .  A
C927        C935   1.444       .  S
C928        C929   1.399       .  A
C928        H937   1.083       .  S
C929        C930   1.402       .  A
C929        H938   1.084       .  S
C930        C931   1.402       .  A
C930        C933   1.443       .  S
C931        C932   1.402       .  A
C931        H939   1.083       .  S
C932        H940   1.083       .  S
C933        C934   1.208       .  T
C935        C936   1.208       .  T
C941        C942   1.402       .  A
C941        C946   1.401       .  A
C941        C949   1.442       .  S
C942        C943   1.399       .  A
C942        H951   1.083       .  S
C943        C944   1.401       .  A
C943        H952   1.083       .  S
C944        C945   1.402       .  A
C944        C947   1.441       .  S
C945        C946   1.400       .  A
C945        H953   1.083       .  S
C946        H954   1.083       .  S
C947        C948   1.207       .  T
C949        C950   1.207       .  T
C955        C956   1.402       .  A
C955        C960   1.401       .  A
C955        C963   1.442       .  S
C956        C957   1.399       .  A
C956        H965   1.083       .  S
C957        C958   1.401       .  A
C957        H966   1.083       .  S
C958        C959   1.402       .  A
C958        C961   1.441       .  S
C959        C960   1.400       .  A
C959        H967   1.083       .  S
C960        H968   1.083       .  S
C961        C962   1.207       .  T
C963        C964   1.207       .  T
C969        C970   1.402       .  A
C969        C974   1.402       .  A
C969        C977   1.445       .  S
C970        C971   1.400       .  A
C970        H979   1.084       .  S
C971        C972   1.401       .  A
C971        H980   1.083       .  S
C972        C973   1.403       .  A
C972        C975   1.444       .  S
C973        C974   1.402       .  A
C973        H981   1.083       .  S
C974        H982   1.083       .  S
C975        C976   1.209       .  T
C977        C978   1.209       .  T
C983        C984   1.403       .  A
C983        C988   1.401       .  A
C983        C991   1.444       .  S
C984        C985   1.402       .  A
C984        H993   1.083       .  S
C985        C986   1.402       .  A
C985        H994   1.083       .  S
C986        C987   1.402       .  A
C986        C989   1.444       .  S
C987        C988   1.400       .  A
C987        H995   1.083       .  S
C988        H996   1.083       .  S
C989        C990   1.209       .  T
C991        C992   1.209       .  T
C997        C998   1.400       .  A
C997       C1002   1.402       .  A
C997       C1005   1.440       .  S
C998        C999   1.398       .  A
C998       H1007   1.083       .  S
C999       C1000   1.402       .  A
C999       H1008   1.084       .  S
C1000      C1001   1.402       .  A
C1000      C1003   1.441       .  S
C1001      C1002   1.400       .  A
C1001      H1009   1.083       .  S
C1002      H1010   1.083       .  S
C1003      C1004   1.207       .  T
C1005      C1006   1.206       .  T
C1011      C1012   1.402       .  A
C1011      C1016   1.402       .  A
C1011      C1019   1.443       .  S
C1012      C1013   1.399       .  A
C1012      H1021   1.083       .  S
C1013      C1014   1.401       .  A
C1013      H1022   1.083       .  S
C1014      C1015   1.403       .  A
C1014      C1017   1.443       .  S
C1015      C1016   1.401       .  A
C1015      H1023   1.083       .  S
C1016      H1024   1.083       .  S
C1017      C1018   1.208       .  T
C1019      C1020   1.208       .  T
C1025      C1026   1.401       .  A
C1025      C1030   1.403       .  A
C1025      C1033   1.443       .  S
C1026      C1027   1.399       .  A
C1026      H1035   1.083       .  S
C1027      C1028   1.402       .  A
C1027      H1036   1.084       .  S
C1028      C1029   1.402       .  A
C1028      C1031   1.443       .  S
C1029      C1030   1.401       .  A
C1029      H1037   1.083       .  S
C1030      H1038   1.083       .  S
C1031      C1032   1.208       .  T
C1033      C1034   1.208       .  T
C1039      C1040   1.403       .  A
C1039      C1044   1.400       .  A
C1039      C1047   1.441       .  S
C1040      C1041   1.401       .  A
C1040      H1049   1.083       .  S
C1041      C1042   1.402       .  A
C1041      H1050   1.083       .  S
C1042      C1043   1.402       .  A
C1042      C1045   1.442       .  S
C1043      C1044   1.399       .  A
C1043      H1051   1.084       .  S
C1044      H1052   1.083       .  S
C1045      C1046   1.207       .  T
C1047      C1048   1.207       .  T
C1053      C1054   1.401       .  A
C1053      C1058   1.402       .  A
C1053      C1061   1.440       .  S
C1054      C1055   1.399       .  A
C1054      H1063   1.083       .  S
C1055      C1056   1.402       .  A
C1055      H1064   1.083       .  S
C1056      C1057   1.401       .  A
C1056      C1059   1.441       .  S
C1057      C1058   1.400       .  A
C1057      H1065   1.083       .  S
C1058      H1066   1.084       .  S
C1059      C1060   1.207       .  T
C1061      C1062   1.206       .  T
C1067      C1068   1.401       .  A
C1067      C1072   1.402       .  A
C1067      C1075   1.442       .  S
C1068      C1069   1.399       .  A
C1068      H1077   1.084       .  S
C1069      C1070   1.401       .  A
C1069      H1078   1.083       .  S
C1070      C1071   1.403       .  A
C1070      C1073   1.443       .  S
C1071      C1072   1.401       .  A
C1071      H1079   1.083       .  S
C1072      H1080   1.083       .  S
C1073      C1074   1.208       .  T
C1075      C1076   1.207       .  T
C1081      C1082   1.403       .  A
C1081      C1086   1.401       .  A
C1081      C1089   1.444       .  S
C1082      C1083   1.403       .  A
C1082      H1091   1.083       .  S
C1083      C1084   1.403       .  A
C1083      H1092   1.083       .  S
C1084      C1085   1.401       .  A
C1084      C1087   1.444       .  S
C1085      C1086   1.399       .  A
C1085      H1093   1.084       .  S
C1086      H1094   1.083       .  S
C1087      C1088   1.208       .  T
C1089      C1090   1.209       .  T
C1095      C1096   1.401       .  A
C1095      C1100   1.403       .  A
C1095      C1103   1.443       .  S
C1096      C1097   1.399       .  A
C1096      H1105   1.084       .  S
C1097      C1098   1.402       .  A
C1097      H1106   1.083       .  S
C1098      C1099   1.402       .  A
C1098      C1101   1.443       .  S
C1099      C1100   1.402       .  A
C1099      H1107   1.083       .  S
C1100      H1108   1.083       .  S
C1101      C1102   1.208       .  T
C1103      C1104   1.208       .  T
C1109      C1110   1.402       .  A
C1109      C1114   1.403       .  A
C1109      C1117   1.445       .  S
C1110      C1111   1.401       .  A
C1110      H1119   1.083       .  S
C1111      C1112   1.403       .  A
C1111      H1120   1.084       .  S
C1112      C1113   1.401       .  A
C1112      C1115   1.445       .  S
C1113      C1114   1.401       .  A
C1113      H1121   1.083       .  S
C1114      H1122   1.083       .  S
C1115      C1116   1.209       .  T
C1117      C1118   1.209       .  T
C1123      C1124   1.400       .  A
C1123      C1128   1.403       .  A
C1123      C1131   1.442       .  S
C1124      C1125   1.399       .  A
C1124      H1133   1.083       .  S
C1125      C1126   1.402       .  A
C1125      H1134   1.083       .  S
C1126      C1127   1.402       .  A
C1126      C1129   1.443       .  S
C1127      C1128   1.401       .  A
C1127      H1135   1.083       .  S
C1128      H1136   1.083       .  S
C1129      C1130   1.208       .  T
C1131      C1132   1.207       .  T
C1137      C1138   1.402       .  A
C1137      C1142   1.402       .  A
C1137      C1145   1.444       .  S
C1138      C1139   1.401       .  A
C1138      H1147   1.083       .  S
C1139      C1140   1.403       .  A
C1139      H1148   1.083       .  S
C1140      C1141   1.401       .  A
C1140      C1143   1.443       .  S
C1141      C1142   1.400       .  A
C1141      H1149   1.083       .  S
C1142      H1150   1.083       .  S
C1143      C1144   1.208       .  T
C1145      C1146   1.209       .  T
C1151      C1152   1.400       .  A
C1151      C1156   1.403       .  A
C1151      C1159   1.438       .  S
C1152      C1153   1.397       .  A
C1152      H1161   1.083       .  S
C1153      C1154   1.401       .  A
C1153      H1162   1.084       .  S
C1154      C1155   1.401       .  A
C1154      C1157   1.438       .  S
C1155      C1156   1.400       .  A
C1155      H1163   1.083       .  S
C1156      H1164   1.083       .  S
C1157      C1158   1.205       .  T
C1159      C1160   1.205       .  T
C1165      C1166   1.403       .  A
C1165      C1170   1.401       .  A
C1165      C1173   1.443       .  S
C1166      C1167   1.401       .  A
C1166      H1175   1.083       .  S
C1167      C1168   1.401       .  A
C1167      H1176   1.083       .  S
C1168      C1169   1.402       .  A
C1168      C1171   1.442       .  S
C1169      C1170   1.400       .  A
C1169      H1177   1.083       .  S
C1170      H1178   1.083       .  S
C1171      C1172   1.207       .  T
C1173      C1174   1.208       .  T
C1179      C1180   1.402       .  A
C1179      C1184   1.402       .  A
C1179      C1187   1.443       .  S
C1180      C1181   1.400       .  A
C1180      H1189   1.083       .  S
C1181      C1182   1.401       .  A
C1181      H1190   1.083       .  S
C1182      C1183   1.403       .  A
C1182      C1185   1.442       .  S
C1183      C1184   1.400       .  A
C1183      H1191   1.084       .  S
C1184      H1192   1.083       .  S
C1185      C1186   1.207       .  T
C1187      C1188   1.208       .  T
C1193      C1194   1.402       .  A
C1193      C1198   1.403       .  A
C1193      C1201   1.445       .  S
C1194      C1195   1.402       .  A
C1194      H1203   1.083       .  S
C1195      C1196   1.403       .  A
C1195      H1204   1.083       .  S
C1196      C1197   1.401       .  A
C1196      C1199   1.445       .  S
C1197      C1198   1.400       .  A
C1197      H1205   1.083       .  S
C1198      H1206   1.083       .  S
C1199      C1200   1.209       .  T
C1201      C1202   1.209       .  T
C1207      C1208   1.403       .  A
C1207      C1212   1.401       .  A
C1207      C1215   1.444       .  S
C1208      C1209   1.401       .  A
C1208      H1217   1.083       .  S
C1209      C1210   1.402       .  A
C1209      H1218   1.083       .  S
C1210      C1211   1.402       .  A
C1210      C1213   1.443       .  S
C1211      C1212   1.400       .  A
C1211      H1219   1.083       .  S
C1212      H1220   1.083       .  S
C1213      C1214   1.208       .  T
C1215      C1216   1.208       .  T
C1221      C1222   1.402       .  A
C1221      C1226   1.402       .  A
C1221      C1229   1.443       .  S
C1222      C1223   1.399       .  A
C1222      H1231   1.084       .  S
C1223      C1224   1.401       .  A
C1223      H1232   1.083       .  S
C1224      C1225   1.403       .  A
C1224      C1227   1.444       .  S
C1225      C1226   1.402       .  A
C1225      H1233   1.083       .  S
C1226      H1234   1.083       .  S
C1227      C1228   1.208       .  T
C1229      C1230   1.208       .  T
C1235      C1236   1.401       .  A
C1235      C1240   1.402       .  A
C1235      C1243   1.442       .  S
C1236      C1237   1.398       .  A
C1236      H1245   1.084       .  S
C1237      C1238   1.401       .  A
C1237      H1246   1.084       .  S
C1238      C1239   1.402       .  A
C1238      C1241   1.442       .  S
C1239      C1240   1.402       .  A
C1239      H1247   1.083       .  S
C1240      H1248   1.083       .  S
C1241      C1242   1.207       .  T
C1243      C1244   1.207       .  T
C1249      C1250   1.402       .  A
C1249      C1254   1.401       .  A
C1249      C1257   1.442       .  S
C1250      C1251   1.400       .  A
C1250      H1259   1.083       .  S
C1251      C1252   1.401       .  A
C1251      H1260   1.083       .  S
C1252      C1253   1.403       .  A
C1252      C1255   1.442       .  S
C1253      C1254   1.400       .  A
C1253      H1261   1.084       .  S
C1254      H1262   1.083       .  S
C1255      C1256   1.207       .  T
C1257      C1258   1.207       .  T
C1263      C1264   1.400       .  A
C1263      C1268   1.403       .  A
C1263      C1271   1.439       .  S
C1264      C1265   1.397       .  A
C1264      H1273   1.084       .  S
C1265      C1266   1.402       .  A
C1265      H1274   1.084       .  S
C1266      C1267   1.401       .  A
C1266      C1269   1.440       .  S
C1267      C1268   1.401       .  A
C1267      H1275   1.083       .  S
C1268      H1276   1.083       .  S
C1269      C1270   1.206       .  T
C1271      C1272   1.206       .  T
