geometry optimzed in LAMMPS
_audit_creation_date              2020-11-30 
_audit_creation_method            'lammps2cif' 
_symmetry_space_group_name_H-M    'P1' 
_symmetry_Int_Tables_number       1 
_symmetry_cell_setting            triclinic 
loop_ 
_symmetry_equiv_pos_as_xyz 
  x,y,z 
_cell_length_a                    44.90442611 
_cell_length_b                    44.58391917456714 
_cell_length_c                    22.262429118084018 
_cell_angle_alpha                 89.89262532717377 
_cell_angle_beta                  89.94514624673573 
_cell_angle_gamma                 89.96025903543159 
loop_ 
_atom_site_label 
_atom_site_type_symbol 
_atom_site_fract_x 
_atom_site_fract_y 
_atom_site_fract_z 
_atom_site_charge 
O1          O  0.38807460  0.40666096  0.82420213    -0.72300
O2          O  0.41110658  0.34394524  0.71815321    -0.72500
O3          O  0.41183670  0.40442239  0.71467943    -0.72400
O4          O  0.38759027  0.34536960  0.82760048    -0.72400
O5          O  0.34279755  0.34566228  0.79053826    -0.72400
O6          O  0.36701586  0.40467419  0.67774089    -0.72400
O7          O  0.36629006  0.34362623  0.68122873    -0.72300
O8          O  0.34327846  0.40611134  0.78724494    -0.72500
V9          V  0.39873165  0.37511334  0.77072154     1.35200
V10         V  0.35578616  0.37504518  0.73465672     1.35200
C11         C  0.36215521  0.41783917  0.82193081     0.76900
C12         C  0.39206197  0.33223271  0.68375819     0.77000
C13         C  0.39305122  0.41550114  0.67888828     0.76900
C14         C  0.36162088  0.33441445  0.82607425     0.76800
O15         O  0.09206692  0.40464530  0.70676822    -0.72300
O16         O  0.11531334  0.34556845  0.82062835    -0.72500
O17         O  0.11594217  0.40669561  0.81586914    -0.72400
O18         O  0.09136800  0.34410271  0.71151592    -0.72400
O19         O  0.13616703  0.34229555  0.67454890    -0.72400
O20         O  0.16053195  0.40547272  0.77775391    -0.72400
O21         O  0.16012210  0.34510237  0.78349065    -0.72300
O22         O  0.13665380  0.40352538  0.66863412    -0.72500
V23         V  0.10459205  0.37524477  0.76319752     1.35200
V24         V  0.14743140  0.37411249  0.72654710     1.35200
C25         C  0.11093108  0.41510067  0.67027492     0.76900
C26         C  0.14122655  0.33440267  0.81957257     0.77000
C27         C  0.14191395  0.41758505  0.81259897     0.76900
C28         C  0.11010778  0.33156517  0.67754090     0.76800
O29         O  0.46987525  0.28165969  0.54252529    -0.72300
O30         O  0.02965554  0.25964528  0.43025002    -0.72500
O31         O  0.46880795  0.25990116  0.43134371    -0.72400
O32         O  0.02989118  0.28137776  0.54136214    -0.72400
O33         O  0.03043684  0.23564466  0.57536801    -0.72400
O34         O  0.46916606  0.21418393  0.46546884    -0.72400
O35         O  0.02930239  0.21388293  0.46417395    -0.72300
O36         O  0.46945438  0.23596240  0.57679175    -0.72500
V37         V  0.99955294  0.26969068  0.48677647     1.35200
V38         V  0.99957346  0.22584999  0.52004464     1.35200
C39         C  0.45863398  0.26219169  0.57691926     0.76900
C40         C  0.04061840  0.23349098  0.43016432     0.77000
C41         C  0.45772126  0.23380160  0.43162050     0.76900
C42         C  0.04147513  0.26177683  0.57504231     0.76800
C43         C  0.38212626  0.25462177  0.63317526     0.79700
N44         N  0.40960025  0.24774536  0.61206244    -0.78600
C45         C  0.43132777  0.26888513  0.61039038     0.82100
N46         N  0.42568254  0.29701169  0.63145289    -0.78600
C47         C  0.39821048  0.30375715  0.65360397     0.82200
N48         N  0.37655266  0.28260322  0.65375246    -0.80300
C49         C  0.11864905  0.25351827  0.62810242     0.79700
N50         N  0.09088727  0.24683840  0.60822609    -0.78600
C51         C  0.06930490  0.26824044  0.60716880     0.82100
N52         N  0.07545490  0.29640073  0.62757666    -0.78600
C53         C  0.10322435  0.30294428  0.64838749     0.82200
N54         N  0.12462250  0.28152296  0.64800660    -0.80300
O55         O  0.47098601  0.01026216  0.56848985    -0.72300
O56         O  0.03017496  0.03281771  0.45467439    -0.72500
O57         O  0.47008689  0.03314812  0.45816271    -0.72400
O58         O  0.03195591  0.00985023  0.56489389    -0.72400
O59         O  0.03066258  0.46442505  0.52956878    -0.72400
O60         O  0.46923039  0.48781018  0.42233864    -0.72400
O61         O  0.03001454  0.48739575  0.41930424    -0.72300
O62         O  0.47061022  0.46494316  0.53258504    -0.72500
V63         V  0.00079831  0.02058735  0.51114131     1.35200
V64         V  0.00013388  0.47708931  0.47640208     1.35200
C65         C  0.45974725  0.48422221  0.56784031     0.76900
C66         C  0.04111917  0.01348994  0.41963674     0.77000
C67         C  0.45827590  0.01393806  0.42414053     0.76900
C68         C  0.04272300  0.48360983  0.56323908     0.76800
C69         C  0.12062804  0.49128806  0.61048732     0.79700
N70         N  0.09276723  0.49776811  0.59120543    -0.78600
C71         C  0.07090418  0.47683088  0.59329341     0.82100
N72         N  0.07675325  0.44911472  0.61629676    -0.78600
C73         C  0.10462307  0.44261746  0.63662868     0.82200
N74         N  0.12633503  0.46368399  0.63336141    -0.80300
C75         C  0.38306204  0.49223499  0.62462589     0.79700
N76         N  0.41049150  0.49876388  0.60232876    -0.78600
C77         C  0.43236885  0.47766354  0.60142432     0.82100
N78         N  0.42693366  0.44974756  0.62401980    -0.78600
C79         C  0.39945990  0.44322947  0.64640518     0.82200
N80         N  0.37787283  0.46433766  0.64573409    -0.80300
O81         O  0.21901952  0.26393492  0.07369403    -0.72300
O82         O  0.28084784  0.28607578  0.96581952    -0.72500
O83         O  0.22080479  0.28635953  0.96316969    -0.72400
O84         O  0.27993978  0.26362274  0.07643101    -0.72400
O85         O  0.27976070  0.21813347  0.04137732    -0.72400
O86         O  0.22061142  0.24082532  0.92832192    -0.72400
O87         O  0.28146322  0.24056099  0.93088224    -0.72300
O88         O  0.21971787  0.21840864  0.03885860    -0.72500
V89         V  0.25016635  0.27406369  0.01934817     1.35200
V90         V  0.25039177  0.23042706  0.98527095     1.35200
C91         C  0.20792798  0.23785488  0.07246424     0.76900
C92         C  0.29257518  0.26662243  0.93217140     0.77000
C93         C  0.20960294  0.26695484  0.92876671     0.76900
C94         C  0.29085397  0.23744036  0.07614676     0.76800
C95         C  0.37017269  0.25770334  0.88344198     0.79700
N96         N  0.34228274  0.25157525  0.90311545    -0.78600
C97         C  0.32073734  0.27290174  0.90161595     0.82100
N98         N  0.32699174  0.30062040  0.87914965    -0.78600
C99         C  0.35490517  0.30672872  0.85860335     0.82200
N100        N  0.37628487  0.28528139  0.86102619    -0.80300
C101        C  0.13233403  0.25820931  0.87887916     0.79700
N102        N  0.16017550  0.25195949  0.89861741    -0.78600
C103        C  0.18177758  0.27319703  0.89700627     0.82100
N104        N  0.17565125  0.30087036  0.87406354    -0.78600
C105        C  0.14778651  0.30700374  0.85322002     0.82200
N106        N  0.12632837  0.28570367  0.85612094    -0.80300
O107        O  0.40790128  0.15491322  0.28593915    -0.72300
O108        O  0.38328971  0.09420636  0.17684463    -0.72500
O109        O  0.38359620  0.15556190  0.17717194    -0.72400
O110        O  0.40767892  0.09427908  0.28540863    -0.72400
O111        O  0.36292744  0.09333856  0.32275263    -0.72400
O112        O  0.33930577  0.15583995  0.21678705    -0.72400
O113        O  0.33855719  0.09537805  0.21426927    -0.72300
O114        O  0.36360916  0.15469275  0.32547647    -0.72500
V115        V  0.39469689  0.12474382  0.23181093     1.35200
V116        V  0.35203064  0.12481687  0.26932565     1.35200
C117        C  0.38941193  0.16601398  0.32245256     0.76900
C118        C  0.35719060  0.08353750  0.17912671     0.77000
C119        C  0.35795756  0.16718963  0.18095383     0.76900
C120        C  0.38887115  0.08230700  0.32008692     0.76800
O121        O  0.22100497  0.46699116  0.95317507    -0.72300
O122        O  0.27726445  0.49009305  0.07119942    -0.72500
O123        O  0.21653292  0.48987480  0.06302596    -0.72400
O124        O  0.28095365  0.46733108  0.96101106    -0.72400
O125        O  0.28190970  0.01260003  0.92467753    -0.72400
O126        O  0.21836822  0.03540907  0.02821237    -0.72400
O127        O  0.27838148  0.03537072  0.03482218    -0.72300
O128        O  0.22109757  0.01253656  0.91808660    -0.72500
V129        V  0.24896526  0.47951271  0.01165302     1.35200
V130        V  0.24992461  0.02304005  0.97686300     1.35200
C131        C  0.21027656  0.48633992  0.91795021     0.76900
C132        C  0.28850426  0.01609375  0.07101864     0.77000
C133        C  0.20580848  0.01615044  0.06127124     0.76900
C134        C  0.29309202  0.48655415  0.92718598     0.76800
C135        C  0.13327182  0.49470341  0.86725099     0.79700
N136        N  0.16101584  0.50105018  0.88714480    -0.78600
C137        C  0.18280409  0.48001557  0.88529094     0.82100
N138        N  0.17678831  0.45219048  0.86313231    -0.78600
C139        C  0.14886589  0.44580080  0.84298555     0.82200
N140        N  0.12726906  0.46698615  0.84583831    -0.80300
C141        C  0.37031558  0.49555509  0.87387007     0.79700
N142        N  0.37653072  0.46768997  0.85328140    -0.78600
C143        C  0.35538995  0.44600594  0.85303420     0.82100
N144        N  0.32765626  0.45208667  0.87487141    -0.78600
C145        C  0.32138488  0.47995875  0.89663908     0.82200
N146        N  0.34273065  0.50151640  0.89573300    -0.80300
O147        O  0.11297282  0.15805406  0.17466749    -0.72300
O148        O  0.09025564  0.09492749  0.28012688    -0.72500
O149        O  0.09010079  0.15543071  0.28473226    -0.72400
O150        O  0.11312934  0.09695011  0.16993546    -0.72400
O151        O  0.15813372  0.09641583  0.20587014    -0.72400
O152        O  0.13514576  0.15534139  0.32044924    -0.72400
O153        O  0.13523541  0.09388818  0.31610377    -0.72300
O154        O  0.15803761  0.15691661  0.21024036    -0.72500
V155        V  0.10255476  0.12632599  0.22784930     1.35200
V156        V  0.14571168  0.12565583  0.26277915     1.35200
C157        C  0.13895108  0.16900175  0.17634314     0.76900
C158        C  0.10931777  0.08276404  0.31397249     0.77000
C159        C  0.10917143  0.16642712  0.31995023     0.76900
C160        C  0.13903177  0.08574842  0.17026424     0.76800
C161        C  0.12831402  0.00914536  0.11539035     0.79700
N162        N  0.12322689  0.03713245  0.13625752    -0.78600
C163        C  0.14499548  0.05808692  0.13692439     0.82100
N164        N  0.17246547  0.05124613  0.11479358    -0.78600
C165        C  0.17771835  0.02331659  0.09214710     0.82200
N166        N  0.15569923  0.00238195  0.09312557    -0.80300
C167        C  0.36362968  0.00511617  0.13083035     0.79700
N168        N  0.37046952  0.03297341  0.15075203    -0.78600
C169        C  0.35007269  0.05541306  0.14857110     0.82100
N170        N  0.32249189  0.05006556  0.12546191    -0.78600
C171        C  0.31557364  0.02207350  0.10541474     0.82200
N172        N  0.33605953  0.99982834  0.10891380    -0.80300
C173        C  0.36650473  0.24584676  0.13643794     0.79700
N174        N  0.37271936  0.21749148  0.15425624    -0.78600
C175        C  0.35164792  0.19579680  0.15143018     0.82100
N176        N  0.32420984  0.20232719  0.12894936    -0.78600
C177        C  0.31807784  0.23069922  0.10974492     0.82200
N178        N  0.33920606  0.25234518  0.11402066    -0.80300
C179        C  0.13018663  0.24622273  0.12111140     0.79700
N180        N  0.12407982  0.21846034  0.14258103    -0.78600
C181        C  0.14561599  0.19716402  0.14509677     0.82100
N182        N  0.17354244  0.20356656  0.12490156    -0.78600
C183        C  0.17976075  0.23145512  0.10315109     0.82200
N184        N  0.15812572  0.25273269  0.10207992    -0.80300
C185        C  0.11717661  0.00414533  0.36184438     0.79700
N186        N  0.08961905  0.99809815  0.38344874    -0.78600
C187        C  0.06856168  0.01988638  0.38620547     0.82100
N188        N  0.07501724  0.04803873  0.36606671    -0.78600
C189        C  0.10268773  0.05420490  0.34406173     0.82200
N190        N  0.12372941  0.03233433  0.34306844    -0.80300
C191        C  0.38123738  0.00455246  0.37319333     0.79700
N192        N  0.37476095  0.03221677  0.35149272    -0.78600
C193        C  0.39578694  0.05407998  0.35079241     0.82100
N194        N  0.42362075  0.04820935  0.37210892    -0.78600
C195        C  0.43016614  0.02036698  0.39363533     0.82200
N196        N  0.40899909  0.99871830  0.39366293    -0.80300
C197        C  0.38042625  0.24264366  0.38035522     0.79700
N198        N  0.40818030  0.24886797  0.40068695    -0.78600
C199        C  0.42986136  0.22762310  0.39950100     0.82100
N200        N  0.42388937  0.19998738  0.37622334    -0.78600
C201        C  0.39613363  0.19386359  0.35474175     0.82200
N202        N  0.37460038  0.21516216  0.35741964    -0.80300
C203        C  0.11678814  0.24378966  0.37410593     0.79700
N204        N  0.08926119  0.24930348  0.39625352    -0.78600
C205        C  0.06831620  0.22742977  0.39754938     0.82100
N206        N  0.07485602  0.19969201  0.37549575    -0.78600
C207        C  0.10256019  0.19405649  0.35303829     0.82200
N208        N  0.12344595  0.21604705  0.35321883    -0.80300
O209        O  0.46942766  0.40610762  0.18202158    -0.72300
O210        O  0.02995200  0.34681302  0.17439270    -0.72500
O211        O  0.02915109  0.40669684  0.17335852    -0.72400
O212        O  0.47000703  0.34601412  0.18303334    -0.72400
O213        O  0.46741952  0.34512285  0.08552257    -0.72400
O214        O  0.02546245  0.40663752  0.07609483    -0.72400
O215        O  0.02680820  0.34651876  0.07693996    -0.72300
O216        O  0.46573677  0.40520039  0.08491398    -0.72500
V217        V  0.99955758  0.37637525  0.17633886     1.35200
V218        V  0.99639053  0.37593373  0.08278008     1.35200
C219        C  0.45709444  0.41568140  0.13475718     0.76900
C220        C  0.03893115  0.33692078  0.12438899     0.77000
C221        C  0.03775903  0.41660818  0.12300779     0.76900
C222        C  0.45884139  0.33515918  0.13574318     0.76800
O223        O  0.21800468  0.34523646  0.42576554    -0.72300
O224        O  0.27922614  0.40408484  0.42155527    -0.72500
O225        O  0.21952806  0.40557624  0.42001770    -0.72400
O226        O  0.27775274  0.34394576  0.42819837    -0.72400
O227        O  0.27964004  0.34279209  0.33061857    -0.72400
O228        O  0.21915565  0.40221306  0.32258624    -0.72400
O229        O  0.27888267  0.40260667  0.32428922    -0.72300
O230        O  0.21961971  0.34234501  0.32827710    -0.72500
V231        V  0.24859903  0.37466326  0.42205159     1.35200
V232        V  0.24930575  0.37247921  0.32837651     1.35200
C233        C  0.20856924  0.33375984  0.37750045     0.76900
C234        C  0.28937067  0.41360368  0.37195196     0.77000
C235        C  0.20946829  0.41433901  0.36998774     0.76900
C236        C  0.28907144  0.33344313  0.38076329     0.76800
O237        O  0.28083452  0.15547725  0.58028769    -0.72300
O238        O  0.22191486  0.09457434  0.57301491    -0.72500
O239        O  0.22123714  0.15477926  0.57938853    -0.72400
O240        O  0.28174040  0.09551535  0.57356184    -0.72400
O241        O  0.28077467  0.09214246  0.67088672    -0.72400
O242        O  0.22105271  0.15227313  0.67692112    -0.72400
O243        O  0.22132867  0.09233665  0.67035502    -0.72300
O244        O  0.28118696  0.15199945  0.67771348    -0.72500
V245        V  0.25139698  0.12502847  0.57843481     1.35200
V246        V  0.25108066  0.12232017  0.67207869     1.35200
C247        C  0.29134200  0.16369826  0.63023011     0.76900
C248        C  0.21177707  0.08283540  0.62061507     0.77000
C249        C  0.21075543  0.16347733  0.62905138     0.76900
C250        C  0.29157040  0.08375508  0.62123586     0.76800
O251        O  0.47406301  0.15769330  0.83434653    -0.72300
O252        O  0.03106518  0.09532165  0.83583826    -0.72500
O253        O  0.47152692  0.09768861  0.83539336    -0.72400
O254        O  0.03370999  0.15504597  0.83501696    -0.72400
O255        O  0.03185899  0.15697701  0.93256902    -0.72400
O256        O  0.47250793  0.09652689  0.93274709    -0.72400
O257        O  0.03242376  0.09673390  0.93311410    -0.72300
O258        O  0.47217680  0.15667448  0.93162956    -0.72500
V259        V  0.00255987  0.12644794  0.83706108     1.35200
V260        V  0.00225729  0.12670168  0.93072482     1.35200
C261        C  0.46312329  0.16773704  0.88252204     0.76900
C262        C  0.04197909  0.08569708  0.88446930     0.77000
C263        C  0.46151900  0.08709283  0.88412306     0.76900
C264        C  0.04312065  0.16590540  0.88374089     0.76800
C265        C  0.16797824  0.26015936  0.39741870    -0.20800
C266        C  0.13973854  0.26740548  0.37475618    -0.07400
C267        C  0.13427366  0.29665140  0.35244089     0.13500
C268        C  0.15717471  0.31803622  0.35436056    -0.20900
C269        C  0.18514866  0.31082383  0.37810983    -0.07400
C270        C  0.19078378  0.28155681  0.39918192     0.13500
C271        C  0.22124773  0.27256575  0.42067428    -0.24200
H272        H  0.17220224  0.23764245  0.41382396     0.14700
H273        H  0.15331749  0.34046907  0.33710234     0.14800
C274        C  0.10488489  0.30511588  0.32442751    -0.24200
H275        H  0.22196184  0.24875251  0.43537805     0.05000
H276        H  0.22804319  0.28681386  0.45911817     0.08200
H277        H  0.23732562  0.27544716  0.38324122     0.08200
H278        H  0.08683017  0.30385973  0.35835795     0.08200
H279        H  0.09983846  0.28975454  0.28656715     0.08200
H280        H  0.10522315  0.32839071  0.30662948     0.05000
C281        C  0.36369964  0.29494802  0.36332975    -0.20800
C282        C  0.35685775  0.26575455  0.38273831    -0.07400
C283        C  0.32797678  0.25944649  0.40497208     0.13500
C284        C  0.30661145  0.28240964  0.40625991    -0.20900
C285        C  0.31301640  0.31098956  0.38360926    -0.07400
C286        C  0.34198628  0.31761161  0.36308235     0.13500
C287        C  0.35015820  0.34879064  0.34257113    -0.24200
H288        H  0.38593902  0.29987787  0.34719710     0.14700
H289        H  0.28469167  0.27788785  0.42407240     0.14800
C290        C  0.31964381  0.22885934  0.42868121    -0.24200
H291        H  0.37389049  0.35023345  0.32877301     0.05000
H292        H  0.34643006  0.36494181  0.37975841     0.08200
H293        H  0.33622300  0.35544392  0.30362510     0.08200
H294        H  0.33539409  0.22200735  0.46459961     0.08200
H295        H  0.32016384  0.21216822  0.39180655     0.08200
H296        H  0.29681839  0.22865254  0.44796738     0.05000
C297        C  0.34191627  0.47612483  0.32091253    -0.20800
C298        C  0.35833962  0.48087222  0.37344043    -0.07400
C299        C  0.35226976  0.46340731  0.42500480     0.13500
C300        C  0.32960668  0.44184537  0.42288762    -0.20900
C301        C  0.31311716  0.43679870  0.37023722    -0.07400
C302        C  0.31963830  0.45412042  0.31817351     0.13500
C303        C  0.30321047  0.45016523  0.25965158    -0.24200
H304        H  0.34688474  0.98951075  0.28140550     0.14700
H305        H  0.32491849  0.42867467  0.46275494     0.14800
C306        C  0.36881497  0.46809554  0.48304600    -0.24200
H307        H  0.30735878  0.92730522  0.24155802     0.05000
H308        H  0.31073758  0.46643797  0.22495741     0.08200
H309        H  0.27898474  0.45373020  0.26669928     0.08200
H310        H  0.36681430  0.49189496  0.49682104     0.08200
H311        H  0.39265699  0.46219901  0.47741377     0.08200
H312        H  0.35977001  0.45391286  0.51984087     0.05000
C313        C  0.16822087  0.48804862  0.38773949    -0.20800
C314        C  0.14053199  0.48083715  0.36248752    -0.07400
C315        C  0.13591163  0.45183401  0.33853672     0.13500
C316        C  0.15920065  0.43084609  0.34047897    -0.20900
C317        C  0.18660438  0.43790371  0.36699378    -0.07400
C318        C  0.19129992  0.46692873  0.39064905     0.13500
C319        C  0.22047402  0.47673740  0.41777505    -0.24200
H320        H  0.17179595  0.01029869  0.40596790     0.14700
H321        H  0.15584385  0.40856162  0.32224650     0.14800
C322        C  0.10685810  0.44303399  0.30969229    -0.24200
H323        H  0.21692460  0.98293465  0.46557614     0.05000
H324        H  0.22896943  0.49663636  0.39307081     0.08200
H325        H  0.23798914  0.45927402  0.41580629     0.08200
H326        H  0.10171012  0.45863384  0.27235160     0.08200
H327        H  0.08861537  0.44363371  0.34328899     0.08200
H328        H  0.10773656  0.41997018  0.29095968     0.05000
C329        C  0.05742996  0.28720007  0.09273921    -0.20800
C330        C  0.06294515  0.31454188  0.12156350    -0.07400
C331        C  0.09108453  0.31995312  0.14760156     0.13500
C332        C  0.11283340  0.29737704  0.14577275    -0.20900
C333        C  0.10679973  0.26941370  0.11970597    -0.07400
C334        C  0.07880750  0.26424994  0.09259477     0.13500
C335        C  0.07154540  0.23484265  0.06267556    -0.24200
H336        H  0.03605944  0.28353622  0.07150472     0.14700
H337        H  0.13445624  0.30132974  0.16588105     0.14800
C338        C  0.09848444  0.34978493  0.17566374    -0.24200
H339        H  0.04941972  0.23545059  0.04042763     0.05000
H340        H  0.07103410  0.21656700  0.09652561     0.08200
H341        H  0.08859905  0.22963740  0.02810539     0.08200
H342        H  0.08358732  0.35411138  0.21446605     0.08200
H343        H  0.09564760  0.36795788  0.14197065     0.08200
H344        H  0.12181584  0.35047294  0.19214174     0.05000
C345        C  0.41763515  0.26215971  0.11258090    -0.20800
C346        C  0.38994784  0.26888481  0.13845320    -0.07400
C347        C  0.38548344  0.29699185  0.16630391     0.13500
C348        C  0.40880207  0.31795549  0.16663451    -0.20900
C349        C  0.43603915  0.31159032  0.13862638    -0.07400
C350        C  0.44066766  0.28332156  0.11178978     0.13500
C351        C  0.47013619  0.27516684  0.08384197    -0.24200
H352        H  0.42108407  0.24039893  0.09203809     0.14700
H353        H  0.40554872  0.33967678  0.18747618     0.14800
C354        C  0.35649534  0.30470395  0.19670457    -0.24200
H355        H  0.47018805  0.25184142  0.06638389     0.05000
H356        H  0.48793452  0.27700685  0.11819612     0.08200
H357        H  0.47515079  0.29045222  0.04577031     0.08200
H358        H  0.35141555  0.28780605  0.23194810     0.08200
H359        H  0.33818174  0.30520245  0.16332384     0.08200
H360        H  0.35742964  0.32710800  0.21819183     0.05000
C361        C  0.40665456  0.48072358  0.18042646    -0.20800
C362        C  0.38628037  0.48100266  0.13261481    -0.07400
C363        C  0.38891990  0.45923923  0.08661777     0.13500
C364        C  0.41211949  0.43825985  0.08937903    -0.20900
C365        C  0.43270839  0.43810991  0.13682114    -0.07400
C366        C  0.42974644  0.45954455  0.18340426     0.13500
C367        C  0.45120085  0.46105614  0.23539771    -0.24200
H368        H  0.40451808  0.99728539  0.21577252     0.14700
H369        H  0.41418447  0.42175208  0.05392545     0.14800
C370        C  0.36827850  0.45847739  0.03314415    -0.24200
H371        H  0.44620195  0.98018371  0.26570611     0.05000
H372        H  0.47427758  0.46396779  0.21838294     0.08200
H373        H  0.44969343  0.44024197  0.26262803     0.08200
H374        H  0.36840450  0.48057260  0.01011511     0.08200
H375        H  0.34532596  0.45283756  0.04777790     0.08200
H376        H  0.37509917  0.44128688  0.99978625     0.05000
C377        C  0.06018748  0.46312456  0.16158472    -0.20800
C378        C  0.06124054  0.43973137  0.11971105    -0.07400
C379        C  0.08449061  0.43914654  0.07666565     0.13500
C380        C  0.10543655  0.46246696  0.07581716    -0.20900
C381        C  0.10440126  0.48606355  0.11751630    -0.07400
C382        C  0.08123515  0.48635072  0.16112107     0.13500
C383        C  0.07859358  0.01037846  0.20853707    -0.24200
H384        H  0.04245151  0.46339242  0.19469046     0.14700
H385        H  0.12305543  0.46190197  0.04248433     0.14800
C386        C  0.08909143  0.41382628  0.03270871    -0.24200
H387        H  0.06056738  0.00545533  0.24131565     0.05000
H388        H  0.07329236  0.03229315  0.18739904     0.08200
H389        H  0.09973517  0.01198735  0.23402379     0.08200
H390        H  0.07387882  0.39465302  0.03961408     0.08200
H391        H  0.11205236  0.40488133  0.03765278     0.08200
H392        H  0.08630294  0.42235681  0.98615337     0.05000
C393        C  0.39558452  0.03730780  0.92617857    -0.20800
C394        C  0.39370041  0.01890154  0.87525399    -0.07400
C395        C  0.41400507  0.02328270  0.82734412     0.13500
C396        C  0.43567102  0.04573880  0.83200077    -0.20900
C397        C  0.43794768  0.06384280  0.88331257    -0.07400
C398        C  0.41752145  0.05957402  0.93116177     0.13500
C399        C  0.41806620  0.07865605  0.98701976    -0.24200
H400        H  0.37999652  0.03395412  0.96280472     0.14700
H401        H  0.45115524  0.04903361  0.79518579     0.14800
C402        C  0.41247227  0.50534647  0.77011675    -0.24200
H403        H  0.39946673  0.07306019  0.01802766     0.05000
H404        H  0.41595028  0.10270761  0.97466097     0.08200
H405        H  0.43914347  0.07491274  0.01191064     0.08200
H406        H  0.39015562  0.50815082  0.74986773     0.08200
H407        H  0.41695236  0.48129103  0.77906307     0.08200
H408        H  0.42912134  0.51300814  0.73649707     0.05000
C409        C  0.10728989  0.03444929  0.92412747    -0.20800
C410        C  0.10957964  0.01747520  0.87130578    -0.07400
C411        C  0.08970574  0.02293882  0.82342750     0.13500
C412        C  0.06782362  0.04504066  0.82996092    -0.20900
C413        C  0.06519210  0.06201276  0.88291971    -0.07400
C414        C  0.08534001  0.05662800  0.93077936     0.13500
C415        C  0.08456683  0.07442006  0.98830617    -0.24200
H416        H  0.12268423  0.53012575  0.96071724     0.14700
H417        H  0.05264196  0.04910123  0.79300961     0.14800
C418        C  0.09215032  0.00655343  0.76434778    -0.24200
H419        H  0.10275181  0.56775258  0.01946318     0.05000
H420        H  0.06319750  0.07048660  0.01211501     0.08200
H421        H  0.08719559  0.09867949  0.97824861     0.08200
H422        H  0.08724976  0.98237101  0.77061559     0.08200
H423        H  0.11492597  0.00930515  0.74582328     0.08200
H424        H  0.07618043  0.01533112  0.73052562     0.05000
C425        C  0.05886657  0.21779931  0.90281296    -0.20800
C426        C  0.06633657  0.18892090  0.88348052    -0.07400
C427        C  0.09545653  0.18264834  0.86343899     0.13500
C428        C  0.11663134  0.20571399  0.86301268    -0.20900
C429        C  0.10905797  0.23493820  0.88087575    -0.07400
C430        C  0.07976556  0.24111047  0.90100332     0.13500
C431        C  0.07054090  0.27186304  0.92221966    -0.24200
H432        H  0.03638879  0.22221422  0.91832883     0.14700
H433        H  0.13908879  0.20103526  0.84772160     0.14800
C434        C  0.10428911  0.15157044  0.84363181    -0.24200
H435        H  0.04751727  0.27189192  0.94052607     0.05000
H436        H  0.07110143  0.28798806  0.88423726     0.08200
H437        H  0.08574562  0.27958455  0.95831355     0.08200
H438        H  0.09085084  0.14479646  0.80410944     0.08200
H439        H  0.10046728  0.13537088  0.88080075     0.08200
H440        H  0.12817202  0.15044331  0.83078641     0.05000
C441        C  0.41311052  0.23280048  0.83522061    -0.20800
C442        C  0.39365193  0.23447054  0.88441014    -0.07400
C443        C  0.39763792  0.21472109  0.93353447     0.13500
C444        C  0.42073448  0.19356140  0.93164058    -0.20900
C445        C  0.43982307  0.19133185  0.88177889    -0.07400
C446        C  0.43605873  0.21150248  0.83297271     0.13500
C447        C  0.45632713  0.21144179  0.77885707    -0.24200
H448        H  0.41009708  0.24811161  0.79779391     0.14700
H449        H  0.42361288  0.17834182  0.96922198     0.14800
C450        C  0.37836187  0.21637509  0.98892227    -0.24200
H451        H  0.45101030  0.23000533  0.74725023     0.05000
H452        H  0.45377920  0.19015161  0.75366313     0.08200
H453        H  0.47981815  0.21425565  0.79335000     0.08200
H454        H  0.35511577  0.21005278  0.97791483     0.08200
H455        H  0.37882880  0.23949940  0.00725286     0.08200
H456        H  0.38620335  0.20085434  0.02465300     0.05000
C457        C  0.31184619  0.03608586  0.65923600    -0.20800
C458        C  0.31473116  0.06033646  0.61967568    -0.07400
C459        C  0.33967750  0.06193189  0.58115313     0.13500
C460        C  0.36161417  0.03961268  0.58472413    -0.20900
C461        C  0.35883731  0.01505457  0.62415034    -0.07400
C462        C  0.33304507  0.01303884  0.66128836     0.13500
C463        C  0.32704844  0.98704885  0.70332633    -0.24200
H464        H  0.29239833  0.03489956  0.68806697     0.14700
H465        H  0.38086976  0.54117488  0.55551974     0.14800
C466        C  0.34372795  0.08736402  0.53714663    -0.24200
H467        H  0.30636703  0.99037118  0.72992669     0.05000
H468        H  0.34550812  0.98431274  0.73582032     0.08200
H469        H  0.32402417  0.96610224  0.67719105     0.08200
H470        H  0.34338725  0.10914212  0.56118839     0.08200
H471        H  0.32564428  0.08694541  0.50322757     0.08200
H472        H  0.36521200  0.58566015  0.51260180     0.05000
C473        C  0.16487354  0.01420528  0.65780199    -0.20800
C474        C  0.14420301  0.01451032  0.61055271    -0.07400
C475        C  0.14673440  0.03666046  0.56512044     0.13500
C476        C  0.16924130  0.05837594  0.56944221    -0.20900
C477        C  0.18913441  0.05875706  0.61805621    -0.07400
C478        C  0.18718773  0.03600689  0.66241586     0.13500
C479        C  0.20889862  0.03385826  0.71396912    -0.24200
H480        H  0.16327582  0.99701580  0.69216271     0.14700
H481        H  0.17100660  0.07550276  0.53499462     0.14800
C482        C  0.12658362  0.03710721  0.51097243    -0.24200
H483        H  0.20511364  0.01344325  0.74164059     0.05000
H484        H  0.20633545  0.05347835  0.74410697     0.08200
H485        H  0.23203582  0.03284812  0.69641506     0.08200
H486        H  0.10343709  0.04255950  0.52454754     0.08200
H487        H  0.12714027  0.51490713  0.48861447     0.08200
H488        H  0.13360886  0.05423611  0.47755266     0.05000
C489        C  0.19183796  0.21337381  0.59988936    -0.20800
C490        C  0.18709936  0.18632498  0.63055197    -0.07400
C491        C  0.15960314  0.18114832  0.65966206     0.13500
C492        C  0.13738384  0.20330192  0.65728380    -0.20900
C493        C  0.14237425  0.23065140  0.62771793    -0.07400
C494        C  0.16996322  0.23582658  0.59880620     0.13500
C495        C  0.17618764  0.26460573  0.56543730    -0.24200
H496        H  0.21291893  0.21704062  0.57722394     0.14700
H497        H  0.11618375  0.19947222  0.67934429     0.14800
C498        C  0.15333520  0.15199223  0.69160498    -0.24200
H499        H  0.19832564  0.26412434  0.54330424     0.05000
H500        H  0.17613708  0.28381696  0.59701209     0.08200
H501        H  0.15901765  0.26820730  0.53029894     0.08200
H502        H  0.16894632  0.14914369  0.72980680     0.08200
H503        H  0.15603211  0.13296572  0.65992062     0.08200
H504        H  0.13029816  0.15127677  0.70974071     0.05000
C505        C  0.36383081  0.20428318  0.66135363    -0.20800
C506        C  0.35841170  0.23187931  0.63308447    -0.07400
C507        C  0.33085088  0.23699725  0.60416881     0.13500
C508        C  0.30948397  0.21411127  0.60356282    -0.20900
C509        C  0.31468062  0.18674081  0.63272107    -0.07400
C510        C  0.34208786  0.18170552  0.66222305     0.13500
C511        C  0.34879697  0.15233721  0.69305404    -0.24200
H512        H  0.38506087  0.20053960  0.68332967     0.14700
H513        H  0.28842548  0.21769586  0.58083356     0.14800
C514        C  0.32416221  0.26616460  0.57252594    -0.24200
H515        H  0.37169859  0.15192028  0.71187852     0.05000
H516        H  0.34679925  0.13361219  0.66054183     0.08200
H517        H  0.33296513  0.14870469  0.73065745     0.08200
H518        H  0.34146326  0.27070573  0.53803246     0.08200
H519        H  0.32367671  0.28481745  0.60542012     0.08200
H520        H  0.30217723  0.26562712  0.54971040     0.05000
O521        O  0.38807421  0.90666410  0.82420714    -0.72300
O522        O  0.41111014  0.84395012  0.71815441    -0.72500
O523        O  0.41184009  0.90442777  0.71468663    -0.72400
O524        O  0.38759087  0.84537095  0.82759888    -0.72400
O525        O  0.34279949  0.84566375  0.79053039    -0.72400
O526        O  0.36702011  0.90467980  0.67774394    -0.72400
O527        O  0.36629481  0.84363234  0.68122398    -0.72300
O528        O  0.34327917  0.90611357  0.78724492    -0.72500
V529        V  0.39873350  0.87511710  0.77072466     1.35200
V530        V  0.35578912  0.87504917  0.73465468     1.35200
C531        C  0.36215448  0.91784179  0.82193348     0.76900
C532        C  0.39206628  0.83223822  0.68375657     0.77000
C533        C  0.39305542  0.91550679  0.67889402     0.76900
C534        C  0.36162202  0.83441453  0.82606649     0.76800
O535        O  0.09205986  0.90464091  0.70676777    -0.72300
O536        O  0.11530922  0.84556597  0.82062921    -0.72500
O537        O  0.11593682  0.90669244  0.81586646    -0.72400
O538        O  0.09136262  0.84409773  0.71151865    -0.72400
O539        O  0.13616168  0.84228960  0.67455183    -0.72400
O540        O  0.16052573  0.90547051  0.77774659    -0.72400
O541        O  0.16011799  0.84510106  0.78349136    -0.72300
O542        O  0.13664574  0.90351963  0.66862909    -0.72500
V543        V  0.10458646  0.87524093  0.76319730     1.35200
V544        V  0.14742537  0.87410870  0.72654461     1.35200
C545        C  0.11092353  0.91509606  0.67027319     0.76900
C546        C  0.14122316  0.83440190  0.81957540     0.77000
C547        C  0.14190830  0.91758231  0.81259333     0.76900
C548        C  0.11010283  0.83155871  0.67754672     0.76800
O549        O  0.46987795  0.78165799  0.54253299    -0.72300
O550        O  0.02965785  0.75963968  0.43026067    -0.72500
O551        O  0.46881013  0.75990045  0.43135161    -0.72400
O552        O  0.02989204  0.78137119  0.54137364    -0.72400
O553        O  0.03043183  0.73563857  0.57538335    -0.72400
O554        O  0.46916692  0.71418205  0.46547085    -0.72400
O555        O  0.02930375  0.71387789  0.46418751    -0.72300
O556        O  0.46945084  0.73595970  0.57679399    -0.72500
V557        V  0.99955503  0.76968691  0.48678559     1.35200
V558        V  0.99957197  0.72584592  0.52005254     1.35200
C559        C  0.45863407  0.76219051  0.57692432     0.76900
C560        C  0.04062052  0.73348525  0.43017697     0.77000
C561        C  0.45772255  0.73380143  0.43162604     0.76900
C562        C  0.04147156  0.76176994  0.57505857     0.76800
C563        C  0.38212730  0.75462635  0.63318317     0.79700
N564        N  0.40960073  0.74774815  0.61207097    -0.78600
C565        C  0.43132905  0.76888671  0.61039576     0.82100
N566        N  0.42568542  0.79701427  0.63145475    -0.78600
C567        C  0.39821377  0.80376167  0.65360540     0.82200
N568        N  0.37655494  0.78260869  0.65375685    -0.80300
C569        C  0.11864456  0.75351120  0.62810871     0.79700
N570        N  0.09088202  0.74683073  0.60823934    -0.78600
C571        C  0.06929936  0.76823207  0.60718825     0.82100
N572        N  0.07544956  0.79639238  0.62759400    -0.78600
C573        C  0.10321964  0.80293670  0.64839855     0.82200
N574        N  0.12461858  0.78151603  0.64801244    -0.80300
O575        O  0.47098600  0.51025497  0.56849378    -0.72300
O576        O  0.03017288  0.53281528  0.45467844    -0.72500
O577        O  0.47008572  0.53314567  0.45817093    -0.72400
O578        O  0.03195599  0.50984413  0.56489280    -0.72400
O579        O  0.03066242  0.96443027  0.52957438    -0.72400
O580        O  0.46923168  0.98781100  0.42233895    -0.72400
O581        O  0.03001632  0.98739719  0.41930558    -0.72300
O582        O  0.47061153  0.96494879  0.53258885    -0.72500
V583        V  0.00079743  0.52058256  0.51114502     1.35200
V584        V  0.00013505  0.97709285  0.47640474     1.35200
C585        C  0.45974824  0.98422897  0.56784103     0.76900
C586        C  0.04111719  0.51348851  0.41963904     0.77000
C587        C  0.45827500  0.51393741  0.42414488     0.76900
C588        C  0.04272166  0.98361516  0.56324557     0.76800
C589        C  0.12062777  0.99128285  0.61048758     0.79700
N590        N  0.09276684  0.99776768  0.59121317    -0.78600
C591        C  0.07090075  0.97683403  0.59330535     0.82100
N592        N  0.07674690  0.94911656  0.61630606    -0.78600
C593        C  0.10461688  0.94261466  0.63663132     0.82200
N594        N  0.12633192  0.96367773  0.63335919    -0.80300
C595        C  0.38305955  0.99223549  0.62460773     0.79700
N596        N  0.41048948  0.99876705  0.60231609    -0.78600
C597        C  0.43237029  0.97767016  0.60142536     0.82100
N598        N  0.42693817  0.94975515  0.62402897    -0.78600
C599        C  0.39946408  0.94323473  0.64640953     0.82200
N600        N  0.37787398  0.96433932  0.64572474    -0.80300
O601        O  0.21902370  0.76393560  0.07370417    -0.72300
O602        O  0.28084975  0.78607803  0.96582292    -0.72500
O603        O  0.22080603  0.78636319  0.96318077    -0.72400
O604        O  0.27994379  0.76362256  0.07643326    -0.72400
O605        O  0.27976324  0.71813412  0.04137509    -0.72400
O606        O  0.22061073  0.74082952  0.92833024    -0.72400
O607        O  0.28146223  0.74056405  0.93088141    -0.72300
O608        O  0.21972076  0.71841002  0.03886523    -0.72500
V609        V  0.25016914  0.77406540  0.01935475     1.35200
V610        V  0.25039273  0.73042948  0.98527392     1.35200
C611        C  0.20793238  0.73785534  0.07247504     0.76900
C612        C  0.29257528  0.76662500  0.93217112     0.77000
C613        C  0.20960284  0.76695924  0.92877781     0.76900
C614        C  0.29085720  0.73743987  0.07614601     0.76800
C615        C  0.37016914  0.75769896  0.88342071     0.79700
N616        N  0.34228002  0.75157407  0.90310286    -0.78600
C617        C  0.32073683  0.77290294  0.90161093     0.82100
N618        N  0.32699284  0.80062132  0.87914478    -0.78600
C619        C  0.35490547  0.80672684  0.85859002     0.82200
N620        N  0.37628304  0.78527664  0.86100387    -0.80300
C621        C  0.13233268  0.75821286  0.87890203     0.79700
N622        N  0.16017439  0.75196407  0.89863908    -0.78600
C623        C  0.18177639  0.77320144  0.89702142     0.82100
N624        N  0.17564977  0.80087344  0.87407216    -0.78600
C625        C  0.14778452  0.80700533  0.85322890     0.82200
N626        N  0.12632640  0.78570557  0.85613734    -0.80300
O627        O  0.40789683  0.65491553  0.28596100    -0.72300
O628        O  0.38328479  0.59420726  0.17687400    -0.72500
O629        O  0.38359205  0.65556100  0.17719379    -0.72400
O630        O  0.40767405  0.59428251  0.28543752    -0.72400
O631        O  0.36292240  0.59334239  0.32278089    -0.72400
O632        O  0.33930169  0.65584222  0.21680944    -0.72400
O633        O  0.33855187  0.59538046  0.21429686    -0.72300
O634        O  0.36360490  0.65469640  0.32549965    -0.72500
V635        V  0.39469219  0.62474529  0.23183669     1.35200
V636        V  0.35202584  0.62481989  0.26935124     1.35200
C637        C  0.38940787  0.66601692  0.32247407     0.76900
C638        C  0.35718534  0.58353958  0.17915494     0.77000
C639        C  0.35795373  0.66718930  0.18097324     0.76900
C640        C  0.38886633  0.58231110  0.32011642     0.76800
O641        O  0.22099343  0.96698541  0.95319440    -0.72300
O642        O  0.27726013  0.99008611  0.07121004    -0.72500
O643        O  0.21652650  0.98987040  0.06304643    -0.72400
O644        O  0.28094394  0.96732300  0.96102243    -0.72400
O645        O  0.28191928  0.51260788  0.92466485    -0.72400
O646        O  0.21837453  0.53541441  0.02819674    -0.72400
O647        O  0.27838762  0.53537775  0.03481192    -0.72300
O648        O  0.22110664  0.51254295  0.91807022    -0.72500
V649        V  0.24895706  0.97950624  0.01166876     1.35200
V650        V  0.24993255  0.52304689  0.97684884     1.35200
C651        C  0.21026638  0.98633408  0.91796688     0.76900
C652        C  0.28850761  0.51610092  0.07101206     0.77000
C653        C  0.20581457  0.51615457  0.06125284     0.76900
C654        C  0.29308268  0.98654650  0.92719840     0.76800
C655        C  0.13326979  0.99470594  0.86721254     0.79700
N656        N  0.16101152  0.00104908  0.88712560    -0.78600
C657        C  0.18279644  0.98001029  0.88529654     0.82100
N658        N  0.17678003  0.95218467  0.86314153    -0.78600
C659        C  0.14886014  0.94579861  0.84297597     0.82200
N660        N  0.12726646  0.96698776  0.84580617    -0.80300
C661        C  0.37030175  0.99556128  0.87386690     0.79700
N662        N  0.37652194  0.96769759  0.85327519    -0.78600
C663        C  0.35538610  0.94600818  0.85303770     0.82100
N664        N  0.32765261  0.95208304  0.87488390    -0.78600
C665        C  0.32137673  0.97995398  0.89665271     0.82200
N666        N  0.34271781  0.00151631  0.89574019    -0.80300
O667        O  0.11297925  0.65804973  0.17467268    -0.72300
O668        O  0.09025834  0.59492233  0.28012783    -0.72500
O669        O  0.09010321  0.65542531  0.28473459    -0.72400
O670        O  0.11313516  0.59694552  0.16993861    -0.72400
O671        O  0.15813862  0.59641089  0.20587784    -0.72400
O672        O  0.13514709  0.65533544  0.32045707    -0.72400
O673        O  0.13523714  0.59388288  0.31610962    -0.72300
O674        O  0.15804291  0.65691181  0.21025118    -0.72500
V675        V  0.10255910  0.62632107  0.22785210     1.35200
V676        V  0.14571501  0.62565052  0.26278696     1.35200
C677        C  0.13895747  0.66899761  0.17635258     0.76900
C678        C  0.10931940  0.58275928  0.31397659     0.77000
C679        C  0.10917269  0.66642107  0.31995582     0.76900
C680        C  0.13903763  0.58574400  0.17026902     0.76800
C681        C  0.12832360  0.50914135  0.11538767     0.79700
N682        N  0.12323561  0.53712697  0.13626208    -0.78600
C683        C  0.14500228  0.55808351  0.13692599     0.82100
N684        N  0.17247117  0.55124634  0.11478508    -0.78600
C685        C  0.17772455  0.52331843  0.09213084     0.82200
N686        N  0.15570742  0.50238156  0.09311207    -0.80300
C687        C  0.36362665  0.50512077  0.13084853     0.79700
N688        N  0.37046458  0.53297654  0.15077991    -0.78600
C689        C  0.35006787  0.55541617  0.14859734     0.82100
N690        N  0.32248933  0.55007072  0.12547562    -0.78600
C691        C  0.31557332  0.52207991  0.10541869     0.82200
N692        N  0.33605870  0.49983454  0.10892057    -0.80300
C693        C  0.36650880  0.74584139  0.13643390     0.79700
N694        N  0.37271993  0.71748711  0.15426206    -0.78600
C695        C  0.35164612  0.69579470  0.15144235     0.82100
N696        N  0.32420899  0.70232608  0.12895788    -0.78600
C697        C  0.31808067  0.73069726  0.10974347     0.82200
N698        N  0.33921122  0.75234109  0.11401315    -0.80300
C699        C  0.13019298  0.74622119  0.12113600     0.79700
N700        N  0.12408687  0.71845799  0.14260195    -0.78600
C701        C  0.14562284  0.69716143  0.14511157     0.82100
N702        N  0.17354887  0.70356472  0.12491409    -0.78600
C703        C  0.17976664  0.73145435  0.10316744     0.82200
N704        N  0.15813151  0.75273184  0.10210217    -0.80300
C705        C  0.11717816  0.50414409  0.36187217     0.79700
N706        N  0.08961946  0.49809765  0.38347020    -0.78600
C707        C  0.06856092  0.51988482  0.38621383     0.82100
N708        N  0.07501643  0.54803606  0.36606920    -0.78600
C709        C  0.10268816  0.55420171  0.34407019     0.82200
N710        N  0.12373095  0.53233201  0.34308937    -0.80300
C711        C  0.38123515  0.50455515  0.37321164     0.79700
N712        N  0.37475691  0.53222097  0.35152117    -0.78600
C713        C  0.39578273  0.55408419  0.35082084     0.82100
N714        N  0.42361807  0.54821210  0.37212771    -0.78600
C715        C  0.43016504  0.52036812  0.39364358     0.82200
N716        N  0.40899834  0.49871952  0.39367008    -0.80300
C717        C  0.38042606  0.74264669  0.38037467     0.79700
N718        N  0.40818141  0.74887073  0.40069995    -0.78600
C719        C  0.42986183  0.72762515  0.39950982     0.82100
N720        N  0.42388784  0.69998945  0.37623559    -0.78600
C721        C  0.39613096  0.69386609  0.35476108     0.82200
N722        N  0.37459844  0.71516509  0.35744187    -0.80300
C723        C  0.11678805  0.74378467  0.37410291     0.79700
N724        N  0.08926217  0.74929804  0.39625664    -0.78600
C725        C  0.06831810  0.72742336  0.39756014     0.82100
N726        N  0.07485774  0.69968529  0.37550680    -0.78600
C727        C  0.10256100  0.69405054  0.35304330     0.82200
N728        N  0.12344574  0.71604195  0.35321709    -0.80300
O729        O  0.46942511  0.90609940  0.18202464    -0.72300
O730        O  0.02995747  0.84681270  0.17440512    -0.72500
O731        O  0.02914794  0.90669690  0.17336536    -0.72400
O732        O  0.47001261  0.84600580  0.18304197    -0.72400
O733        O  0.46742401  0.84511460  0.08553118    -0.72400
O734        O  0.02546343  0.90663161  0.07610077    -0.72400
O735        O  0.02681240  0.84651290  0.07695254    -0.72300
O736        O  0.46573850  0.90519216  0.08491624    -0.72500
V737        V  0.99955895  0.87637088  0.17634647     1.35200
V738        V  0.99639336  0.87592659  0.08278736     1.35200
C739        C  0.45709387  0.91567298  0.13475795     0.76900
C740        C  0.03893647  0.83691827  0.12440303     0.77000
C741        C  0.03775617  0.91660677  0.12301377     0.76900
C742        C  0.45884722  0.83515033  0.13575209     0.76800
O743        O  0.21800071  0.84523576  0.42574961    -0.72300
O744        O  0.27921997  0.90408748  0.42154026    -0.72500
O745        O  0.21952124  0.90557530  0.41999202    -0.72400
O746        O  0.27774876  0.84394860  0.42819427    -0.72400
O747        O  0.27963914  0.84278925  0.33061503    -0.72400
O748        O  0.21915463  0.90221008  0.32256096    -0.72400
O749        O  0.27888219  0.90260335  0.32427498    -0.72300
O750        O  0.21961862  0.84234188  0.32826174    -0.72500
V751        V  0.24859379  0.87466418  0.42203635     1.35200
V752        V  0.24930471  0.87247622  0.32836193     1.35200
C753        C  0.20856695  0.83375751  0.37748457     0.76900
C754        C  0.28936810  0.91360307  0.37193713     0.77000
C755        C  0.20946447  0.91433734  0.36995903     0.76900
C756        C  0.28906943  0.83344372  0.38076322     0.76800
O757        O  0.28084025  0.65547692  0.58028345    -0.72300
O758        O  0.22191899  0.59457481  0.57302251    -0.72500
O759        O  0.22124246  0.65477915  0.57937596    -0.72400
O760        O  0.28174555  0.59551447  0.57357653    -0.72400
O761        O  0.28077708  0.59214886  0.67090197    -0.72400
O762        O  0.22105551  0.65228043  0.67690941    -0.72400
O763        O  0.22132988  0.59234490  0.67036315    -0.72300
O764        O  0.28118947  0.65200591  0.67771037    -0.72500
V765        V  0.25140222  0.62502828  0.57843606     1.35200
V766        V  0.25108309  0.62232706  0.67208069     1.35200
C767        C  0.29134605  0.66370123  0.63022519     0.76900
C768        C  0.21177770  0.58284156  0.62062540     0.77000
C769        C  0.21075844  0.66347964  0.62903492     0.76900
C770        C  0.29157504  0.58375828  0.62125511     0.76800
O771        O  0.47406331  0.65768401  0.83435537    -0.72300
O772        O  0.03107910  0.59532603  0.83587639    -0.72500
O773        O  0.47154207  0.59767893  0.83541310    -0.72400
O774        O  0.03371096  0.65505050  0.83504420    -0.72400
O775        O  0.03185871  0.65698032  0.93259625    -0.72400
O776        O  0.47251046  0.59652807  0.93276870    -0.72400
O777        O  0.03242597  0.59673622  0.93315266    -0.72300
O778        O  0.47217594  0.65667564  0.93163834    -0.72500
V779        V  0.00256740  0.62644577  0.83708509     1.35200
V780        V  0.00225836  0.62670382  0.93074898     1.35200
C781        C  0.46312093  0.66773136  0.88252529     0.76900
C782        C  0.04198682  0.58569969  0.88451160     0.77000
C783        C  0.46152986  0.58708735  0.88414240     0.76900
C784        C  0.04312016  0.66591006  0.88376899     0.76800
C785        C  0.16797619  0.76015773  0.39742087    -0.20800
C786        C  0.13973809  0.76740067  0.37474669    -0.07400
C787        C  0.13427450  0.79664336  0.35241402     0.13500
C788        C  0.15717499  0.81802900  0.35433020    -0.20900
C789        C  0.18514710  0.81082041  0.37809360    -0.07400
C790        C  0.19078116  0.78155586  0.39918110     0.13500
C791        C  0.22124374  0.77256767  0.42068618    -0.24200
H792        H  0.17219924  0.73764280  0.41383825     0.14700
H793        H  0.15331860  0.84045957  0.33705937     0.14800
C794        C  0.10488756  0.80510298  0.32438731    -0.24200
H795        H  0.22195723  0.74875601  0.43540047     0.05000
H796        H  0.22803640  0.78682007  0.45912568     0.08200
H797        H  0.23732411  0.77544523  0.38325637     0.08200
H798        H  0.08683016  0.80384909  0.35831225     0.08200
H799        H  0.09984514  0.78973716  0.28653209     0.08200
H800        H  0.10522596  0.82837591  0.30657957     0.05000
C801        C  0.36369995  0.79495115  0.36334914    -0.20800
C802        C  0.35685803  0.76575794  0.38275895    -0.07400
C803        C  0.32797632  0.75944959  0.40498906     0.13500
C804        C  0.30661050  0.78241223  0.40627171    -0.20900
C805        C  0.31301531  0.81099150  0.38361798    -0.07400
C806        C  0.34198587  0.81761395  0.36309514     0.13500
C807        C  0.35015727  0.84879229  0.34257900    -0.24200
H808        H  0.38593976  0.79988112  0.34721850     0.14700
H809        H  0.28468998  0.77789023  0.42408098     0.14800
C810        C  0.31964274  0.72886253  0.42869802    -0.24200
H811        H  0.37389025  0.85023562  0.32878584     0.05000
H812        H  0.34642626  0.86494535  0.37976185     0.08200
H813        H  0.33622392  0.85544253  0.30362820     0.08200
H814        H  0.33539214  0.72201067  0.46461804     0.08200
H815        H  0.32016329  0.71217116  0.39182383     0.08200
H816        H  0.29681687  0.72865591  0.44798213     0.05000
C817        C  0.34193241  0.97610737  0.32088221    -0.20800
C818        C  0.35834110  0.98086986  0.37342288    -0.07400
C819        C  0.35225609  0.96342034  0.42500033     0.13500
C820        C  0.32959170  0.94185946  0.42288449    -0.20900
C821        C  0.31311633  0.93679744  0.37022161    -0.07400
C822        C  0.31965448  0.95410255  0.31814364     0.13500
C823        C  0.30324663  0.95012801  0.25960432    -0.24200
H824        H  0.34685657  0.48954015  0.28144596     0.14700
H825        H  0.32489171  0.92870157  0.46276301     0.14800
C826        C  0.36878720  0.96812414  0.48305206    -0.24200
H827        H  0.30731846  0.42734944  0.24156636     0.05000
H828        H  0.31078745  0.96638744  0.22489726     0.08200
H829        H  0.27901887  0.95369820  0.26661221     0.08200
H830        H  0.36678376  0.99192748  0.49679797     0.08200
H831        H  0.39263051  0.96222588  0.47744908     0.08200
H832        H  0.35973288  0.95395178  0.51985349     0.05000
C833        C  0.16821337  0.98804362  0.38773912    -0.20800
C834        C  0.14053069  0.98083885  0.36245301    -0.07400
C835        C  0.13591642  0.95184288  0.33846406     0.13500
C836        C  0.15920481  0.93085396  0.34040701    -0.20900
C837        C  0.18660201  0.93790391  0.36695866    -0.07400
C838        C  0.19129181  0.96692311  0.39064822     0.13500
C839        C  0.22045951  0.97672582  0.41781102    -0.24200
H840        H  0.17180795  0.51030846  0.40594141     0.14700
H841        H  0.15585209  0.90857448  0.32214707     0.14800
C842        C  0.10687016  0.94305288  0.30957851    -0.24200
H843        H  0.21694953  0.48296119  0.46553542     0.05000
H844        H  0.22895832  0.99663310  0.39313854     0.08200
H845        H  0.23797695  0.95926513  0.41583449     0.08200
H846        H  0.10173490  0.95866262  0.27224757     0.08200
H847        H  0.08861797  0.94364730  0.34315468     0.08200
H848        H  0.10775144  0.91999357  0.29082423     0.05000
C849        C  0.05743274  0.78719387  0.09277424    -0.20800
C850        C  0.06295064  0.81453963  0.12158088    -0.07400
C851        C  0.09109240  0.81995471  0.14760475     0.13500
C852        C  0.11284129  0.79737851  0.14577955    -0.20900
C853        C  0.10680518  0.76941137  0.11973082    -0.07400
C854        C  0.07881012  0.76424374  0.09263398     0.13500
C855        C  0.07154461  0.73483272  0.06273246    -0.24200
H856        H  0.03606044  0.78352730  0.07154942     0.14700
H857        H  0.13446615  0.80133433  0.16587651     0.14800
C858        C  0.09849446  0.84979046  0.17564772    -0.24200
H859        H  0.04941706  0.73543839  0.04049188     0.05000
H860        H  0.07103537  0.71656143  0.09659209     0.08200
H861        H  0.08859498  0.72962255  0.02815864     0.08200
H862        H  0.08359990  0.85412264  0.21445145     0.08200
H863        H  0.09565524  0.86795858  0.14194532     0.08200
H864        H  0.12182705  0.85048074  0.19211850     0.05000
C865        C  0.41764244  0.76215035  0.11259184    -0.20800
C866        C  0.38995292  0.76887797  0.13845222    -0.07400
C867        C  0.38548757  0.79698565  0.16629958     0.13500
C868        C  0.40880642  0.81794873  0.16663306    -0.20900
C869        C  0.43604556  0.81158135  0.13863569    -0.07400
C870        C  0.44067609  0.78331100  0.11180755     0.13500
C871        C  0.47014793  0.77515347  0.08387751    -0.24200
H872        H  0.42109254  0.74038846  0.09205463     0.14700
H873        H  0.40555195  0.83967106  0.18746962     0.14800
C874        C  0.35649859  0.80469863  0.19669636    -0.24200
H875        H  0.47020086  0.75182739  0.06642301     0.05000
H876        H  0.48794139  0.77699361  0.11824192     0.08200
H877        H  0.47516887  0.79043733  0.04580677     0.08200
H878        H  0.35141740  0.78780102  0.23193980     0.08200
H879        H  0.33818605  0.80519752  0.16331329     0.08200
H880        H  0.35743267  0.82710261  0.21818428     0.05000
C881        C  0.40665774  0.98072056  0.18041143    -0.20800
C882        C  0.38628268  0.98099724  0.13260111    -0.07400
C883        C  0.38892006  0.95922997  0.08661093     0.13500
C884        C  0.41211862  0.93824944  0.08937676    -0.20900
C885        C  0.43270822  0.93810192  0.13681759    -0.07400
C886        C  0.42974834  0.95954024  0.18339425     0.13500
C887        C  0.45120389  0.96105439  0.23538552    -0.24200
H888        H  0.40451328  0.49728563  0.21579248     0.14700
H889        H  0.41418227  0.92173886  0.05392817     0.14800
C890        C  0.36827719  0.95846496  0.03314000    -0.24200
H891        H  0.44619711  0.48018288  0.26572368     0.05000
H892        H  0.47428048  0.96396324  0.21836803     0.08200
H893        H  0.44969574  0.94024233  0.26262220     0.08200
H894        H  0.36840362  0.98055829  0.01010406     0.08200
H895        H  0.34532475  0.95282766  0.04777827     0.08200
H896        H  0.37509606  0.94127139  0.99978694     0.05000
C897        C  0.06016883  0.96313577  0.16156596    -0.20800
C898        C  0.06123366  0.93973328  0.11971453    -0.07400
C899        C  0.08449057  0.93914293  0.07668524     0.13500
C900        C  0.10543461  0.96246467  0.07583502    -0.20900
C901        C  0.10438981  0.98606930  0.11751508    -0.07400
C902        C  0.08121347  0.98636485  0.16109819     0.13500
C903        C  0.07863010  0.51035241  0.20858699    -0.24200
H904        H  0.04242614  0.96340830  0.19465698     0.14700
H905        H  0.12305980  0.96189408  0.04251623     0.14800
C906        C  0.08910024  0.91381582  0.03274776    -0.24200
H907        H  0.06061332  0.50542173  0.24138208     0.05000
H908        H  0.07332365  0.53227272  0.18747795     0.08200
H909        H  0.09977958  0.51195362  0.23404911     0.08200
H910        H  0.07388659  0.89464338  0.03965297     0.08200
H911        H  0.11206051  0.90487233  0.03771456     0.08200
H912        H  0.08632005  0.92233900  0.98618500     0.05000
C913        C  0.39557563  0.53732451  0.92615393    -0.20800
C914        C  0.39371969  0.51889051  0.87526431    -0.07400
C915        C  0.41405548  0.52324251  0.82739533     0.13500
C916        C  0.43571874  0.54570101  0.83205505    -0.20900
C917        C  0.43796330  0.56383433  0.88332994    -0.07400
C918        C  0.41750979  0.55959292  0.93113948     0.13500
C919        C  0.41802145  0.57870908  0.98695203    -0.24200
H920        H  0.37996626  0.53399264  0.96275093     0.14700
H921        H  0.45122647  0.54897506  0.79527283     0.14800
C922        C  0.41238195  0.00542144  0.77002765    -0.24200
H923        H  0.39940326  0.57313250  0.01792799     0.05000
H924        H  0.41591381  0.60275321  0.97452896     0.08200
H925        H  0.43908374  0.57498084  0.01190324     0.08200
H926        H  0.39005240  0.00824356  0.74984527     0.08200
H927        H  0.41686165  0.98135956  0.77890411     0.08200
H928        H  0.42901132  0.01309999  0.73638376     0.05000
C929        C  0.10727567  0.53442550  0.92419744    -0.20800
C930        C  0.10958107  0.51747059  0.87135382    -0.07400
C931        C  0.08972469  0.52295364  0.82345649     0.13500
C932        C  0.06784445  0.54505684  0.82998917    -0.20900
C933        C  0.06519750  0.56201212  0.88296708    -0.07400
C934        C  0.08532667  0.55660572  0.93084978     0.13500
C935        C  0.08453417  0.57437558  0.98840275    -0.24200
H936        H  0.12271098  0.03016524  0.96063294     0.14700
H937        H  0.05267708  0.54913209  0.79302062     0.14800
C938        C  0.09218771  0.50658781  0.76435834    -0.24200
H939        H  0.10279899  0.06781392  0.01934647     0.05000
H940        H  0.06315386  0.57043849  0.01216915     0.08200
H941        H  0.08717346  0.59863813  0.97838693     0.08200
H942        H  0.08728543  0.48240332  0.77058811     0.08200
H943        H  0.11496926  0.50934548  0.74586832     0.08200
H944        H  0.07622896  0.51537691  0.73052668     0.05000
C945        C  0.05886886  0.71780162  0.90286047    -0.20800
C946        C  0.06633600  0.68892538  0.88351009    -0.07400
C947        C  0.09545343  0.68265457  0.86345075     0.13500
C948        C  0.11662842  0.70571978  0.86302437    -0.20900
C949        C  0.10905737  0.73494189  0.88090370    -0.07400
C950        C  0.07976797  0.74111261  0.90104979     0.13500
C951        C  0.07054728  0.77186338  0.92228335    -0.24200
H952        H  0.03639314  0.72221522  0.91839009     0.14700
H953        H  0.13908396  0.70104269  0.84771970     0.14800
C954        C  0.10428344  0.65157886  0.84362454    -0.24200
H955        H  0.04752583  0.77189140  0.94060092     0.05000
H956        H  0.07110430  0.78799240  0.88430756     0.08200
H957        H  0.08575684  0.77958038  0.95837282     0.08200
H958        H  0.09084096  0.64480978  0.80410468     0.08200
H959        H  0.10046562  0.63537481  0.88078760     0.08200
H960        H  0.12816488  0.65045303  0.83076722     0.05000
C961        C  0.41309449  0.73277964  0.83518608    -0.20800
C962        C  0.39364625  0.73446384  0.88438977    -0.07400
C963        C  0.39764041  0.71472622  0.93353031     0.13500
C964        C  0.42073674  0.69356600  0.93164207    -0.20900
C965        C  0.43981707  0.69132353  0.88176965    -0.07400
C966        C  0.43604175  0.71148003  0.83294244     0.13500
C967        C  0.45629685  0.71140252  0.77880674    -0.24200
H968        H  0.41007363  0.74808119  0.79774600     0.14700
H969        H  0.42362209  0.67835686  0.96923826     0.14800
C970        C  0.37837360  0.71639447  0.98892934    -0.24200
H971        H  0.45097131  0.72995521  0.74718033     0.05000
H972        H  0.45374368  0.69010372  0.75364398     0.08200
H973        H  0.47979131  0.71422257  0.79327209     0.08200
H974        H  0.35512515  0.71007160  0.97794326     0.08200
H975        H  0.37884531  0.73952301  0.00723825     0.08200
H976        H  0.38621965  0.70088114  0.02466886     0.05000
C977        C  0.31186142  0.53609942  0.65928949    -0.20800
C978        C  0.31473811  0.56034106  0.61970399    -0.07400
C979        C  0.33967824  0.56192854  0.58116277     0.13500
C980        C  0.36161389  0.53960814  0.58473169    -0.20900
C981        C  0.35884346  0.51505781  0.62417865    -0.07400
C982        C  0.33306066  0.51305257  0.66134476     0.13500
C983        C  0.32707573  0.48707441  0.70341819    -0.24200
H984        H  0.29241954  0.53491945  0.68813783     0.14700
H985        H  0.38087621  0.04118697  0.55553042     0.14800
C986        C  0.34372366  0.58735334  0.53713726    -0.24200
H987        H  0.30640349  0.49040569  0.73004305     0.05000
H988        H  0.34554615  0.48434636  0.73588917     0.08200
H989        H  0.32404131  0.46612075  0.67731062     0.08200
H990        H  0.34338739  0.60913537  0.56116503     0.08200
H991        H  0.32563552  0.58692997  0.50322828     0.08200
H992        H  0.36521970  0.08567560  0.51262203     0.05000
C993        C  0.16486551  0.51421806  0.65781879    -0.20800
C994        C  0.14419956  0.51451972  0.61056125    -0.07400
C995        C  0.14673243  0.53667002  0.56512959     0.13500
C996        C  0.16923989  0.55838498  0.56945340    -0.20900
C997        C  0.18913046  0.55876729  0.61807175    -0.07400
C998        C  0.18717736  0.53602169  0.66243964     0.13500
C999        C  0.20887836  0.53388040  0.71401107    -0.24200
H1000       H  0.16326615  0.49702923  0.69218043     0.14700
H1001       H  0.17100818  0.57551004  0.53500291     0.14800
C1002       C  0.12658337  0.53711685  0.51097923    -0.24200
H1003       H  0.20508800  0.51346952  0.74169179     0.05000
H1004       H  0.20630887  0.55350496  0.74413534     0.08200
H1005       H  0.23201906  0.53286787  0.69647629     0.08200
H1006       H  0.10343603  0.54256695  0.52455236     0.08200
H1007       H  0.12713804  0.01489687  0.48860962     0.08200
H1008       H  0.13360830  0.55424721  0.47756216     0.05000
C1009       C  0.19183419  0.71337329  0.59987072    -0.20800
C1010       C  0.18709824  0.68632246  0.63052759    -0.07400
C1011       C  0.15960117  0.68113935  0.65962960     0.13500
C1012       C  0.13738093  0.70329197  0.65726258    -0.20900
C1013       C  0.14237019  0.73064529  0.62771050    -0.07400
C1014       C  0.16995713  0.73582381  0.59879357     0.13500
C1015       C  0.17617655  0.76460399  0.56542461    -0.24200
H1016       H  0.21291484  0.71704362  0.57720645     0.14700
H1017       H  0.11618097  0.69945832  0.67932088     0.14800
C1018       C  0.15333330  0.65197721  0.69155088    -0.24200
H1019       H  0.19831316  0.76412494  0.54328622     0.05000
H1020       H  0.17612616  0.78381496  0.59699986     0.08200
H1021       H  0.15900398  0.76820408  0.53029069     0.08200
H1022       H  0.16894301  0.64912223  0.72975300     0.08200
H1023       H  0.15603226  0.63295661  0.65985286     0.08200
H1024       H  0.13029559  0.65125735  0.70968274     0.05000
C1025       C  0.36383389  0.70428596  0.66135020    -0.20800
C1026       C  0.35841232  0.73188458  0.63309274    -0.07400
C1027       C  0.33085065  0.73700367  0.60418104     0.13500
C1028       C  0.30948500  0.71411656  0.60356868    -0.20900
C1029       C  0.31468434  0.68674363  0.63271524    -0.07400
C1030       C  0.34209270  0.68170674  0.66221148     0.13500
C1031       C  0.34880486  0.65233503  0.69302687    -0.24200
H1032       H  0.38506490  0.70054120  0.68332177     0.14700
H1033       H  0.28842549  0.71770209  0.58084377     0.14800
C1034       C  0.32415992  0.76617316  0.57254788    -0.24200
H1035       H  0.37170697  0.65191750  0.71184889     0.05000
H1036       H  0.34680788  0.63361410  0.66050506     0.08200
H1037       H  0.33297417  0.64869625  0.73062977     0.08200
H1038       H  0.34146007  0.77071787  0.53805440     0.08200
H1039       H  0.32367399  0.78482334  0.60544810     0.08200
H1040       H  0.30217460  0.76563630  0.54973364     0.05000
O1041       O  0.88807470  0.40666091  0.82420215    -0.72300
O1042       O  0.91110651  0.34394526  0.71815295    -0.72500
O1043       O  0.91183669  0.40442239  0.71467953    -0.72400
O1044       O  0.88759024  0.34536954  0.82760040    -0.72400
O1045       O  0.84279751  0.34566226  0.79053825    -0.72400
O1046       O  0.86701586  0.40467418  0.67774094    -0.72400
O1047       O  0.86628994  0.34362625  0.68122868    -0.72300
O1048       O  0.84327854  0.40611136  0.78724500    -0.72500
V1049       V  0.89873165  0.37511330  0.77072149     1.35200
V1050       V  0.85578613  0.37504519  0.73465674     1.35200
C1051       C  0.86215533  0.41783916  0.82193085     0.76900
C1052       C  0.89206186  0.33223274  0.68375802     0.77000
C1053       C  0.89305121  0.41550117  0.67888844     0.76900
C1054       C  0.86162084  0.33441440  0.82607416     0.76800
O1055       O  0.59206685  0.40464529  0.70676817    -0.72300
O1056       O  0.61531335  0.34556840  0.82062818    -0.72500
O1057       O  0.61594209  0.40669558  0.81586911    -0.72400
O1058       O  0.59136799  0.34410266  0.71151588    -0.72400
O1059       O  0.63616699  0.34229563  0.67454868    -0.72400
O1060       O  0.66053191  0.40547263  0.77775407    -0.72400
O1061       O  0.66012209  0.34510229  0.78349036    -0.72300
O1062       O  0.63665374  0.40352545  0.66863417    -0.72500
V1063       V  0.60459201  0.37524474  0.76319745     1.35200
V1064       V  0.64743136  0.37411250  0.72654702     1.35200
C1065       C  0.61093102  0.41510073  0.67027496     0.76900
C1066       C  0.64122655  0.33440259  0.81957229     0.77000
C1067       C  0.64191388  0.41758498  0.81259910     0.76900
C1068       C  0.61010777  0.33156519  0.67754077     0.76800
O1069       O  0.96987516  0.28165969  0.54252533    -0.72300
O1070       O  0.52965567  0.25964529  0.43025002    -0.72500
O1071       O  0.96880786  0.25990114  0.43134381    -0.72400
O1072       O  0.52989127  0.28137775  0.54136210    -0.72400
O1073       O  0.53043694  0.23564463  0.57536786    -0.72400
O1074       O  0.96916600  0.21418391  0.46546900    -0.72400
O1075       O  0.52930242  0.21388291  0.46417378    -0.72300
O1076       O  0.96945428  0.23596242  0.57679184    -0.72500
V1077       V  0.49955304  0.26969069  0.48677643     1.35200
V1078       V  0.49957353  0.22584998  0.52004451     1.35200
C1079       C  0.95863387  0.26219170  0.57691928     0.76900
C1080       C  0.54061847  0.23349095  0.43016421     0.77000
C1081       C  0.95772117  0.23380158  0.43162068     0.76900
C1082       C  0.54147522  0.26177681  0.57504221     0.76800
C1083       C  0.88212606  0.25462185  0.63317497     0.79700
N1084       N  0.90960005  0.24774543  0.61206214    -0.78600
C1085       C  0.93132761  0.26888515  0.61039025     0.82100
N1086       N  0.92568240  0.29701171  0.63145279    -0.78600
C1087       C  0.89821033  0.30375718  0.65360382     0.82200
N1088       N  0.87655250  0.28260328  0.65375232    -0.80300
C1089       C  0.61864910  0.25351829  0.62810231     0.79700
N1090       N  0.59088737  0.24683843  0.60822580    -0.78600
C1091       C  0.56930497  0.26824042  0.60716868     0.82100
N1092       N  0.57545493  0.29640070  0.62757666    -0.78600
C1093       C  0.60322437  0.30294428  0.64838740     0.82200
N1094       N  0.62462254  0.28152297  0.64800662    -0.80300
O1095       O  0.97098605  0.01026227  0.56849018    -0.72300
O1096       O  0.53017501  0.03281761  0.45467431    -0.72500
O1097       O  0.97008684  0.03314821  0.45816292    -0.72400
O1098       O  0.53195588  0.00985015  0.56489367    -0.72400
O1099       O  0.53066258  0.46442513  0.52956887    -0.72400
O1100       O  0.96923036  0.48781013  0.42233864    -0.72400
O1101       O  0.53001454  0.48739577  0.41930426    -0.72300
O1102       O  0.97061019  0.46494313  0.53258501    -0.72500
V1103       V  0.50079832  0.02058725  0.51114108     1.35200
V1104       V  0.50013389  0.47708935  0.47640212     1.35200
C1105       C  0.95974727  0.48422217  0.56784036     0.76900
C1106       C  0.54111927  0.01348984  0.41963677     0.77000
C1107       C  0.95827586  0.01393813  0.42414075     0.76900
C1108       C  0.54272296  0.48360993  0.56323920     0.76800
C1109       C  0.62062794  0.49128819  0.61048765     0.79700
N1110       N  0.59276712  0.49776826  0.59120579    -0.78600
C1111       C  0.57090410  0.47683099  0.59329365     0.82100
N1112       N  0.57675321  0.44911481  0.61629678    -0.78600
C1113       C  0.60462302  0.44261756  0.63662884     0.82200
N1114       N  0.62633494  0.46368413  0.63336173    -0.80300
C1115       C  0.88306203  0.49223500  0.62462588     0.79700
N1116       N  0.91049150  0.49876389  0.60232880    -0.78600
C1117       C  0.93236885  0.47766353  0.60142438     0.82100
N1118       N  0.92693363  0.44974757  0.62401990    -0.78600
C1119       C  0.89945988  0.44322951  0.64640537     0.82200
N1120       N  0.87787281  0.46433768  0.64573416    -0.80300
O1121       O  0.71901959  0.26393485  0.07369408    -0.72300
O1122       O  0.78084781  0.28607574  0.96581927    -0.72500
O1123       O  0.72080474  0.28635951  0.96316973    -0.72400
O1124       O  0.77993981  0.26362268  0.07643075    -0.72400
O1125       O  0.77976077  0.21813342  0.04137698    -0.72400
O1126       O  0.72061141  0.24082533  0.92832181    -0.72400
O1127       O  0.78146325  0.24056094  0.93088208    -0.72300
O1128       O  0.71971789  0.21840861  0.03885846    -0.72500
V1129       V  0.75016636  0.27406365  0.01934805     1.35200
V1130       V  0.75039178  0.23042703  0.98527076     1.35200
C1131       C  0.70792802  0.23785482  0.07246424     0.76900
C1132       C  0.79257519  0.26662240  0.93217125     0.77000
C1133       C  0.70960290  0.26695483  0.92876670     0.76900
C1134       C  0.79085404  0.23744031  0.07614640     0.76800
C1135       C  0.87017272  0.25770331  0.88344192     0.79700
N1136       N  0.84228279  0.25157522  0.90311550    -0.78600
C1137       C  0.82073737  0.27290166  0.90161586     0.82100
N1138       N  0.82699173  0.30062030  0.87914939    -0.78600
C1139       C  0.85490517  0.30672864  0.85860318     0.82200
N1140       N  0.87628489  0.28528136  0.86102608    -0.80300
C1141       C  0.63233400  0.25820929  0.87887935     0.79700
N1142       N  0.66017547  0.25195947  0.89861756    -0.78600
C1143       C  0.68177755  0.27319701  0.89700630     0.82100
N1144       N  0.67565122  0.30087031  0.87406345    -0.78600
C1145       C  0.64778650  0.30700368  0.85321982     0.82200
N1146       N  0.62632835  0.28570362  0.85612093    -0.80300
O1147       O  0.90790126  0.15491317  0.28593913    -0.72300
O1148       O  0.88328984  0.09420635  0.17684441    -0.72500
O1149       O  0.88359626  0.15556192  0.17717184    -0.72400
O1150       O  0.90767894  0.09427904  0.28540845    -0.72400
O1151       O  0.86292744  0.09333851  0.32275231    -0.72400
O1152       O  0.83930576  0.15583991  0.21678665    -0.72400
O1153       O  0.83855727  0.09537803  0.21426884    -0.72300
O1154       O  0.86360908  0.15469270  0.32547619    -0.72500
V1155       V  0.89469693  0.12474381  0.23181078     1.35200
V1156       V  0.85203064  0.12481683  0.26932530     1.35200
C1157       C  0.88941187  0.16601393  0.32245248     0.76900
C1158       C  0.85719071  0.08353752  0.17912632     0.77000
C1159       C  0.85795759  0.16718962  0.18095358     0.76900
C1160       C  0.88887115  0.08230698  0.32008673     0.76800
O1161       O  0.72100505  0.46699106  0.95317490    -0.72300
O1162       O  0.77726439  0.49009300  0.07119942    -0.72500
O1163       O  0.71653286  0.48987467  0.06302564    -0.72400
O1164       O  0.78095377  0.46733102  0.96101111    -0.72400
O1165       O  0.78190963  0.01260006  0.92467706    -0.72400
O1166       O  0.71836816  0.03540907  0.02821197    -0.72400
O1167       O  0.77838146  0.03537084  0.03482167    -0.72300
O1168       O  0.72109754  0.01253647  0.91808628    -0.72500
V1169       V  0.74896529  0.47951263  0.01165289     1.35200
V1170       V  0.74992456  0.02304007  0.97686259     1.35200
C1171       C  0.71027665  0.48633980  0.91794999     0.76900
C1172       C  0.78850432  0.01609390  0.07101815     0.77000
C1173       C  0.70580854  0.01615047  0.06127111     0.76900
C1174       C  0.79309217  0.48655411  0.92718604     0.76800
C1175       C  0.63327178  0.49470328  0.86725132     0.79700
N1176       N  0.66101585  0.50105007  0.88714491    -0.78600
C1177       C  0.68280411  0.48001546  0.88529088     0.82100
N1178       N  0.67678831  0.45219039  0.86313226    -0.78600
C1179       C  0.64886585  0.44580069  0.84298572     0.82200
N1180       N  0.62726901  0.46698602  0.84583869    -0.80300
C1181       C  0.87031574  0.49555504  0.87387016     0.79700
N1182       N  0.87653091  0.46768990  0.85328169    -0.78600
C1183       C  0.85539011  0.44600590  0.85303433     0.82100
N1184       N  0.82765640  0.45208666  0.87487139    -0.78600
C1185       C  0.82138503  0.47995872  0.89663912     0.82200
N1186       N  0.84273079  0.50151638  0.89573297    -0.80300
O1187       O  0.61297278  0.15805406  0.17466746    -0.72300
O1188       O  0.59025562  0.09492744  0.28012668    -0.72500
O1189       O  0.59010076  0.15543057  0.28473221    -0.72400
O1190       O  0.61312937  0.09695003  0.16993541    -0.72400
O1191       O  0.65813377  0.09641583  0.20586999    -0.72400
O1192       O  0.63514576  0.15534136  0.32044903    -0.72400
O1193       O  0.63523539  0.09388817  0.31610353    -0.72300
O1194       O  0.65803761  0.15691657  0.21024011    -0.72500
V1195       V  0.60255475  0.12632593  0.22784918     1.35200
V1196       V  0.64571170  0.12565581  0.26277896     1.35200
C1197       C  0.63895104  0.16900174  0.17634303     0.76900
C1198       C  0.60931775  0.08276403  0.31397231     0.77000
C1199       C  0.60917140  0.16642700  0.31995010     0.76900
C1200       C  0.63903182  0.08574838  0.17026418     0.76800
C1201       C  0.62831414  0.00914535  0.11539033     0.79700
N1202       N  0.62322699  0.03713244  0.13625745    -0.78600
C1203       C  0.64499557  0.05808691  0.13692437     0.82100
N1204       N  0.67246557  0.05124613  0.11479361    -0.78600
C1205       C  0.67771845  0.02331659  0.09214712     0.82200
N1206       N  0.65569935  0.00238194  0.09312560    -0.80300
C1207       C  0.86362976  0.00511627  0.13082975     0.79700
N1208       N  0.87046960  0.03297351  0.15075142    -0.78600
C1209       C  0.85007277  0.05541314  0.14857059     0.82100
N1210       N  0.82249196  0.05006568  0.12546148    -0.78600
C1211       C  0.81557371  0.02207363  0.10541423     0.82200
N1212       N  0.83605960  0.99982846  0.10891328    -0.80300
C1213       C  0.86650476  0.24584678  0.13643795     0.79700
N1214       N  0.87271940  0.21749149  0.15425616    -0.78600
C1215       C  0.85164800  0.19579679  0.15142991     0.82100
N1216       N  0.82420994  0.20232716  0.12894895    -0.78600
C1217       C  0.81807791  0.23069920  0.10974462     0.82200
N1218       N  0.83920608  0.25234518  0.11402058    -0.80300
C1219       C  0.63018662  0.24622269  0.12111125     0.79700
N1220       N  0.62407978  0.21846033  0.14258096    -0.78600
C1221       C  0.64561594  0.19716401  0.14509673     0.82100
N1222       N  0.67354241  0.20356653  0.12490158    -0.78600
C1223       C  0.67976077  0.23145508  0.10315114     0.82200
N1224       N  0.65812573  0.25273264  0.10207987    -0.80300
C1225       C  0.61717669  0.00414536  0.36184439     0.79700
N1226       N  0.58961915  0.99809815  0.38344879    -0.78600
C1227       C  0.56856175  0.01988633  0.38620552     0.82100
N1228       N  0.57501725  0.04803870  0.36606668    -0.78600
C1229       C  0.60268772  0.05420490  0.34406166     0.82200
N1230       N  0.62372944  0.03233437  0.34306839    -0.80300
C1231       C  0.88123734  0.00455249  0.37319346     0.79700
N1232       N  0.87476094  0.03221678  0.35149272    -0.78600
C1233       C  0.89578695  0.05407998  0.35079236     0.82100
N1234       N  0.92362074  0.04820934  0.37210884    -0.78600
C1235       C  0.93016610  0.02036700  0.39363547     0.82200
N1236       N  0.90899902  0.99871834  0.39366320    -0.80300
C1237       C  0.88042615  0.24264359  0.38035525     0.79700
N1238       N  0.90818018  0.24886792  0.40068705    -0.78600
C1239       C  0.92986126  0.22762305  0.39950119     0.82100
N1240       N  0.92388930  0.19998734  0.37622344    -0.78600
C1241       C  0.89613357  0.19386353  0.35474176     0.82200
N1242       N  0.87460031  0.21516208  0.35741965    -0.80300
C1243       C  0.61678817  0.24378953  0.37410547     0.79700
N1244       N  0.58926123  0.24930337  0.39625314    -0.78600
C1245       C  0.56831624  0.22742970  0.39754915     0.82100
N1246       N  0.57485601  0.19969189  0.37549556    -0.78600
C1247       C  0.60256017  0.19405637  0.35303801     0.82200
N1248       N  0.62344593  0.21604690  0.35321839    -0.80300
O1249       O  0.96942758  0.40610760  0.18202177    -0.72300
O1250       O  0.52995204  0.34681301  0.17439233    -0.72500
O1251       O  0.52915115  0.40669679  0.17335826    -0.72400
O1252       O  0.97000703  0.34601411  0.18303358    -0.72400
O1253       O  0.96741950  0.34512291  0.08552283    -0.72400
O1254       O  0.52546236  0.40663756  0.07609457    -0.72400
O1255       O  0.52680816  0.34651874  0.07693961    -0.72300
O1256       O  0.96573683  0.40520044  0.08491414    -0.72500
V1257       V  0.49955761  0.37637524  0.17633860     1.35200
V1258       V  0.49639049  0.37593372  0.08277983     1.35200
C1259       C  0.95709442  0.41568141  0.13475731     0.76900
C1260       C  0.53893115  0.33692077  0.12438859     0.77000
C1261       C  0.53775901  0.41660817  0.12300750     0.76900
C1262       C  0.95884135  0.33515923  0.13574342     0.76800
O1263       O  0.71800459  0.34523631  0.42576537    -0.72300
O1264       O  0.77922609  0.40408467  0.42155553    -0.72500
O1265       O  0.71952797  0.40557612  0.42001773    -0.72400
O1266       O  0.77775261  0.34394559  0.42819836    -0.72400
O1267       O  0.77964010  0.34279218  0.33061856    -0.72400
O1268       O  0.71915556  0.40221299  0.32258627    -0.72400
O1269       O  0.77888260  0.40260673  0.32428947    -0.72300
O1270       O  0.71961975  0.34234492  0.32827691    -0.72500
V1271       V  0.74859894  0.37466312  0.42205162     1.35200
V1272       V  0.74930573  0.37247920  0.32837654     1.35200
C1273       C  0.70856923  0.33375971  0.37750019     0.76900
C1274       C  0.78937058  0.41360365  0.37195229     0.77000
C1275       C  0.70946817  0.41433891  0.36998777     0.76900
C1276       C  0.78907142  0.33344311  0.38076325     0.76800
O1277       O  0.78083446  0.15547722  0.58028770    -0.72300
O1278       O  0.72191479  0.09457430  0.57301500    -0.72500
O1279       O  0.72123708  0.15477921  0.57938881    -0.72400
O1280       O  0.78174033  0.09551531  0.57356182    -0.72400
O1281       O  0.78077467  0.09214243  0.67088671    -0.72400
O1282       O  0.72105267  0.15227308  0.67692140    -0.72400
O1283       O  0.72132871  0.09233658  0.67035510    -0.72300
O1284       O  0.78118691  0.15199945  0.67771350    -0.72500
V1285       V  0.75139691  0.12502843  0.57843490     1.35200
V1286       V  0.75108066  0.12232013  0.67207878     1.35200
C1287       C  0.79134192  0.16369828  0.63023012     0.76900
C1288       C  0.71177704  0.08283536  0.62061520     0.77000
C1289       C  0.71075539  0.16347731  0.62905167     0.76900
C1290       C  0.79157036  0.08375505  0.62123583     0.76800
O1291       O  0.97406295  0.15769325  0.83434602    -0.72300
O1292       O  0.53106503  0.09532150  0.83583883    -0.72500
O1293       O  0.97152708  0.09768850  0.83539287    -0.72400
O1294       O  0.53371001  0.15504584  0.83501757    -0.72400
O1295       O  0.53185896  0.15697694  0.93256961    -0.72400
O1296       O  0.97250803  0.09652690  0.93274660    -0.72400
O1297       O  0.53242369  0.09673384  0.93311465    -0.72300
O1298       O  0.97217686  0.15667451  0.93162906    -0.72500
V1299       V  0.50255982  0.12644790  0.83706163     1.35200
V1300       V  0.50225722  0.12670163  0.93072536     1.35200
C1301       C  0.96312328  0.16773703  0.88252153     0.76900
C1302       C  0.54197900  0.08569697  0.88446986     0.77000
C1303       C  0.96151911  0.08709278  0.88412262     0.76900
C1304       C  0.54312065  0.16590530  0.88374149     0.76800
C1305       C  0.66797826  0.26015919  0.39741833    -0.20800
C1306       C  0.63973858  0.26740532  0.37475569    -0.07400
C1307       C  0.63427372  0.29665124  0.35244038     0.13500
C1308       C  0.65717476  0.31803606  0.35436007    -0.20900
C1309       C  0.68514867  0.31082368  0.37810944    -0.07400
C1310       C  0.69078379  0.28155667  0.39918153     0.13500
C1311       C  0.72124773  0.27256563  0.42067388    -0.24200
H1312       H  0.67220225  0.23764233  0.41382364     0.14700
H1313       H  0.65331756  0.34046890  0.33710186     0.14800
C1314       C  0.60488499  0.30511577  0.32442699    -0.24200
H1315       H  0.72196185  0.24875240  0.43537768     0.05000
H1316       H  0.72804314  0.28681377  0.45911775     0.08200
H1317       H  0.73732562  0.27544706  0.38324080     0.08200
H1318       H  0.58683029  0.30385969  0.35835747     0.08200
H1319       H  0.59983855  0.28975446  0.28656660     0.08200
H1320       H  0.60522332  0.32839061  0.30662899     0.05000
C1321       C  0.86369946  0.29494781  0.36332891    -0.20800
C1322       C  0.85685763  0.26575446  0.38273820    -0.07400
C1323       C  0.82797675  0.25944651  0.40497251     0.13500
C1324       C  0.80661145  0.28240970  0.40626037    -0.20900
C1325       C  0.81301635  0.31098953  0.38360913    -0.07400
C1326       C  0.84198615  0.31761144  0.36308152     0.13500
C1327       C  0.85015809  0.34879039  0.34256979    -0.24200
H1328       H  0.88593879  0.29987752  0.34719582     0.14700
H1329       H  0.78469173  0.27788802  0.42407333     0.14800
C1330       C  0.81964389  0.22885944  0.42868224    -0.24200
H1331       H  0.87389033  0.35023306  0.32877122     0.05000
H1332       H  0.84643019  0.36494168  0.37975697     0.08200
H1333       H  0.83622274  0.35544364  0.30362397     0.08200
H1334       H  0.83539430  0.22200761  0.46460053     0.08200
H1335       H  0.82016388  0.21216816  0.39180784     0.08200
H1336       H  0.79681853  0.22865267  0.44796867     0.05000
C1337       C  0.84191587  0.47612514  0.32091321    -0.20800
C1338       C  0.85833952  0.48087224  0.37344077    -0.07400
C1339       C  0.85226992  0.46340705  0.42500492     0.13500
C1340       C  0.82960680  0.44184514  0.42288781    -0.20900
C1341       C  0.81311699  0.43679876  0.37023766    -0.07400
C1342       C  0.81963786  0.45412080  0.31817421     0.13500
C1343       C  0.80320969  0.45016602  0.25965258    -0.24200
H1344       H  0.84688491  0.98951062  0.28140528     0.14700
H1345       H  0.82491886  0.42867418  0.46275489     0.14800
C1346       C  0.86881554  0.46809487  0.48304577    -0.24200
H1347       H  0.80735899  0.92730491  0.24155780     0.05000
H1348       H  0.81073662  0.46643901  0.22495869     0.08200
H1349       H  0.77898401  0.45373101  0.26670097     0.08200
H1350       H  0.86681510  0.49189421  0.49682145     0.08200
H1351       H  0.89265751  0.46219830  0.47741266     0.08200
H1352       H  0.85977080  0.45391200  0.51984054     0.05000
C1353       C  0.66822068  0.48804850  0.38773969    -0.20800
C1354       C  0.64053187  0.48083709  0.36248732    -0.07400
C1355       C  0.63591155  0.45183402  0.33853620     0.13500
C1356       C  0.65920056  0.43084607  0.34047851    -0.20900
C1357       C  0.68660423  0.43790360  0.36699381    -0.07400
C1358       C  0.69129971  0.46692857  0.39064937     0.13500
C1359       C  0.72047373  0.47673718  0.41777589    -0.24200
H1360       H  0.67179611  0.01029877  0.40596735     0.14700
H1361       H  0.65584380  0.40856168  0.32224566     0.14800
C1362       C  0.60685812  0.44303416  0.30969112    -0.24200
H1363       H  0.71692496  0.98293488  0.46557517     0.05000
H1364       H  0.72896926  0.49663622  0.39307206     0.08200
H1365       H  0.73798886  0.45927381  0.41580720     0.08200
H1366       H  0.60171041  0.45863410  0.27235042     0.08200
H1367       H  0.58861521  0.44363392  0.34328738     0.08200
H1368       H  0.60773656  0.41997039  0.29095832     0.05000
C1369       C  0.55742987  0.28719994  0.09273917    -0.20800
C1370       C  0.56294516  0.31454185  0.12156307    -0.07400
C1371       C  0.59108462  0.31995315  0.14760074     0.13500
C1372       C  0.61283348  0.29737708  0.14577191    -0.20900
C1373       C  0.60679972  0.26941366  0.11970561    -0.07400
C1374       C  0.57880743  0.26424981  0.09259476     0.13500
C1375       C  0.57154529  0.23484246  0.06267589    -0.24200
H1376       H  0.53605931  0.28353604  0.07150502     0.14700
H1377       H  0.63445636  0.30132982  0.16587997     0.14800
C1378       C  0.59848458  0.34978498  0.17566275    -0.24200
H1379       H  0.54941960  0.23545035  0.04042806     0.05000
H1380       H  0.57103401  0.21656692  0.09652619     0.08200
H1381       H  0.58859894  0.22963711  0.02810575     0.08200
H1382       H  0.58358754  0.35411142  0.21446519     0.08200
H1383       H  0.59564767  0.36795790  0.14196964     0.08200
H1384       H  0.62181602  0.35047297  0.19214062     0.05000
C1385       C  0.91763524  0.26215968  0.11258132    -0.20800
C1386       C  0.88994784  0.26888483  0.13845322    -0.07400
C1387       C  0.88548332  0.29699194  0.16630352     0.13500
C1388       C  0.90880192  0.31795560  0.16663420    -0.20900
C1389       C  0.93603912  0.31159037  0.13862661    -0.07400
C1390       C  0.94066775  0.28332154  0.11179040     0.13500
C1391       C  0.97013639  0.27516683  0.08384303    -0.24200
H1392       H  0.92108423  0.24039886  0.09203871     0.14700
H1393       H  0.90554844  0.33967694  0.18747549     0.14800
C1394       C  0.85649514  0.30470416  0.19670367    -0.24200
H1395       H  0.97018834  0.25184138  0.06638518     0.05000
H1396       H  0.98793465  0.27700695  0.11819731     0.08200
H1397       H  0.97515105  0.29045218  0.04577136     0.08200
H1398       H  0.85141523  0.28780638  0.23194737     0.08200
H1399       H  0.83818168  0.30520259  0.16332266     0.08200
H1400       H  0.85742942  0.32710828  0.21819063     0.05000
C1401       C  0.90665436  0.48072347  0.18042680    -0.20800
C1402       C  0.88628024  0.48100259  0.13261503    -0.07400
C1403       C  0.88891988  0.45923926  0.08661785     0.13500
C1404       C  0.91211951  0.43825991  0.08937905    -0.20900
C1405       C  0.93270835  0.43810993  0.13682126    -0.07400
C1406       C  0.92974630  0.45954449  0.18340450     0.13500
C1407       C  0.95120066  0.46105601  0.23539798    -0.24200
H1408       H  0.90451834  0.99728566  0.21577173     0.14700
H1409       H  0.91418456  0.42175222  0.05392543     0.14800
C1410       C  0.86827857  0.45847745  0.03314412    -0.24200
H1411       H  0.94620224  0.98018404  0.26570512     0.05000
H1412       H  0.97427740  0.46396760  0.21838322     0.08200
H1413       H  0.94969315  0.44024180  0.26262821     0.08200
H1414       H  0.86840460  0.48057266  0.01011515     0.08200
H1415       H  0.84532601  0.45283759  0.04777770     0.08200
H1416       H  0.87509931  0.44128695  0.99978625     0.05000
C1417       C  0.56018745  0.46312455  0.16158441    -0.20800
C1418       C  0.56124049  0.43973138  0.11971072    -0.07400
C1419       C  0.58449053  0.43914656  0.07666524     0.13500
C1420       C  0.60543646  0.46246697  0.07581674    -0.20900
C1421       C  0.60440118  0.48606355  0.11751589    -0.07400
C1422       C  0.58123509  0.48635073  0.16112070     0.13500
C1423       C  0.57859373  0.01037847  0.20853706    -0.24200
H1424       H  0.54245150  0.46339239  0.19469027     0.14700
H1425       H  0.62305534  0.46190197  0.04248389     0.14800
C1426       C  0.58909134  0.41382630  0.03270829    -0.24200
H1427       H  0.56056750  0.00545536  0.24131561     0.05000
H1428       H  0.57329254  0.03229315  0.18739901     0.08200
H1429       H  0.59973530  0.01198733  0.23402383     0.08200
H1430       H  0.57387872  0.39465304  0.03961360     0.08200
H1431       H  0.61205226  0.40488132  0.03765237     0.08200
H1432       H  0.58630289  0.42235684  0.98615294     0.05000
C1433       C  0.89558463  0.03730780  0.92617857    -0.20800
C1434       C  0.89370044  0.01890156  0.87525398    -0.07400
C1435       C  0.91400503  0.02328272  0.82734400     0.13500
C1436       C  0.93567095  0.04573884  0.83200048    -0.20900
C1437       C  0.93794772  0.06384282  0.88331226    -0.07400
C1438       C  0.91752157  0.05957402  0.93116164     0.13500
C1439       C  0.91806638  0.07865604  0.98701965    -0.24200
H1440       H  0.87999667  0.03395411  0.96280483     0.14700
H1441       H  0.95115512  0.04903363  0.79518539     0.14800
C1442       C  0.91247266  0.50534613  0.77011701    -0.24200
H1443       H  0.89946693  0.07306019  0.01802764     0.05000
H1444       H  0.91595044  0.10270761  0.97466086     0.08200
H1445       H  0.93914365  0.07491274  0.01191050     0.08200
H1446       H  0.89015608  0.50815032  0.74986762     0.08200
H1447       H  0.91695277  0.48129074  0.77906378     0.08200
H1448       H  0.92912183  0.51300767  0.73649741     0.05000
C1449       C  0.60728975  0.03444905  0.92412802    -0.20800
C1450       C  0.60957951  0.01747500  0.87130626    -0.07400
C1451       C  0.58970555  0.02293860  0.82342808     0.13500
C1452       C  0.56782344  0.04504047  0.82996153    -0.20900
C1453       C  0.56519200  0.06201262  0.88292029    -0.07400
C1454       C  0.58533991  0.05662781  0.93077991     0.13500
C1455       C  0.58456679  0.07441990  0.98830668    -0.24200
H1456       H  0.62268455  0.53012600  0.96071722     0.14700
H1457       H  0.55264177  0.04910103  0.79301032     0.14800
C1458       C  0.59215003  0.00655320  0.76434834    -0.24200
H1459       H  0.60275228  0.56775298  0.01946301     0.05000
H1460       H  0.56319744  0.07048652  0.01211550     0.08200
H1461       H  0.58719565  0.09867930  0.97824904     0.08200
H1462       H  0.58724947  0.98237079  0.77061611     0.08200
H1463       H  0.61492565  0.00930490  0.74582368     0.08200
H1464       H  0.57618010  0.01533091  0.73052628     0.05000
C1465       C  0.55886655  0.21779925  0.90281327    -0.20800
C1466       C  0.56633656  0.18892081  0.88348102    -0.07400
C1467       C  0.59545654  0.18264825  0.86343957     0.13500
C1468       C  0.61663133  0.20571392  0.86301307    -0.20900
C1469       C  0.60905793  0.23493817  0.88087594    -0.07400
C1470       C  0.57976551  0.24111044  0.90100342     0.13500
C1471       C  0.57054083  0.27186302  0.92221962    -0.24200
H1472       H  0.53638877  0.22221418  0.91832920     0.14700
H1473       H  0.63908883  0.20103517  0.84772220     0.14800
C1474       C  0.60428917  0.15157028  0.84363295    -0.24200
H1475       H  0.54751717  0.27189191  0.94052594     0.05000
H1476       H  0.57110141  0.28798803  0.88423720     0.08200
H1477       H  0.58574549  0.27958454  0.95831358     0.08200
H1478       H  0.59085095  0.14479607  0.80411070     0.08200
H1479       H  0.60046734  0.13537091  0.88080222     0.08200
H1480       H  0.62817212  0.15044312  0.83078771     0.05000
C1481       C  0.91311027  0.23280024  0.83521987    -0.20800
C1482       C  0.89365193  0.23447053  0.88440979    -0.07400
C1483       C  0.89763811  0.21472126  0.93353433     0.13500
C1484       C  0.92073466  0.19356160  0.93164037    -0.20900
C1485       C  0.93982304  0.19133183  0.88177840    -0.07400
C1486       C  0.93605848  0.21150225  0.83297187     0.13500
C1487       C  0.95632668  0.21144134  0.77885588    -0.24200
H1488       H  0.91009662  0.24811125  0.79779294     0.14700
H1489       H  0.92361324  0.17834217  0.96922203     0.14800
C1490       C  0.87836225  0.21637549  0.98892237    -0.24200
H1491       H  0.95100978  0.23000479  0.74724890     0.05000
H1492       H  0.95377866  0.19015110  0.75366222     0.08200
H1493       H  0.97981778  0.21425519  0.79334838     0.08200
H1494       H  0.85511610  0.21005319  0.97791537     0.08200
H1495       H  0.87882927  0.23949986  0.00725262     0.08200
H1496       H  0.88620382  0.20085483  0.02465321     0.05000
C1497       C  0.81184608  0.03608580  0.65923582    -0.20800
C1498       C  0.81473110  0.06033642  0.61967559    -0.07400
C1499       C  0.83967747  0.06193189  0.58115316     0.13500
C1500       C  0.86161415  0.03961269  0.58472414    -0.20900
C1501       C  0.85883727  0.01505457  0.62415029    -0.07400
C1502       C  0.83304501  0.01303882  0.66128820     0.13500
C1503       C  0.82704834  0.98704881  0.70332606    -0.24200
H1504       H  0.79239822  0.03489946  0.68806662     0.14700
H1505       H  0.88086951  0.54117464  0.55551903     0.14800
C1506       C  0.84372792  0.08736405  0.53714680    -0.24200
H1507       H  0.80636690  0.99037110  0.72992631     0.05000
H1508       H  0.84550800  0.98431268  0.73582009     0.08200
H1509       H  0.82402413  0.96610224  0.67719064     0.08200
H1510       H  0.84338719  0.10914213  0.56118870     0.08200
H1511       H  0.82564427  0.08694546  0.50322771     0.08200
H1512       H  0.86521167  0.58565984  0.51260109     0.05000
C1513       C  0.66487343  0.01420530  0.65780219    -0.20800
C1514       C  0.64420286  0.01451039  0.61055300    -0.07400
C1515       C  0.64673424  0.03666057  0.56512081     0.13500
C1516       C  0.66924118  0.05837601  0.56944254    -0.20900
C1517       C  0.68913433  0.05875707  0.61805643    -0.07400
C1518       C  0.68718767  0.03600685  0.66241599     0.13500
C1519       C  0.70889866  0.03385809  0.71396899    -0.24200
H1520       H  0.66327572  0.99701578  0.69216289     0.14700
H1521       H  0.67100649  0.07550287  0.53499500     0.14800
C1522       C  0.62658339  0.03710744  0.51097296    -0.24200
H1523       H  0.70511373  0.01344301  0.74164031     0.05000
H1524       H  0.70633553  0.05347813  0.74410698     0.08200
H1525       H  0.73203580  0.03284794  0.69641461     0.08200
H1526       H  0.60343688  0.04255972  0.52454823     0.08200
H1527       H  0.62714014  0.51490730  0.48861473     0.08200
H1528       H  0.63360859  0.05423640  0.47755329     0.05000
C1529       C  0.69183793  0.21337376  0.59988925    -0.20800
C1530       C  0.68709934  0.18632499  0.63055220    -0.07400
C1531       C  0.65960315  0.18114842  0.65966239     0.13500
C1532       C  0.63738383  0.20330200  0.65728395    -0.20900
C1533       C  0.64237427  0.23065141  0.62771784    -0.07400
C1534       C  0.66996317  0.23582652  0.59880591     0.13500
C1535       C  0.67618759  0.26460564  0.56543688    -0.24200
H1536       H  0.71291890  0.21704053  0.57722388     0.14700
H1537       H  0.61618375  0.19947236  0.67934439     0.14800
C1538       C  0.65333518  0.15199239  0.69160548    -0.24200
H1539       H  0.69832554  0.26412420  0.54330368     0.05000
H1540       H  0.67613709  0.28381686  0.59701170     0.08200
H1541       H  0.65901755  0.26820727  0.53029862     0.08200
H1542       H  0.66894637  0.14914384  0.72980716     0.08200
H1543       H  0.65603195  0.13296586  0.65992110     0.08200
H1544       H  0.63029817  0.15127704  0.70974139     0.05000
C1545       C  0.86383076  0.20428322  0.66135317    -0.20800
C1546       C  0.85841151  0.23187942  0.63308435    -0.07400
C1547       C  0.83085056  0.23699743  0.60416925     0.13500
C1548       C  0.80948369  0.21411142  0.60356330    -0.20900
C1549       C  0.81468048  0.18674088  0.63272111    -0.07400
C1550       C  0.84208782  0.18170555  0.66222272     0.13500
C1551       C  0.84879705  0.15233717  0.69305342    -0.24200
H1552       H  0.88506091  0.20053959  0.68332879     0.14700
H1553       H  0.78842511  0.21769607  0.58083433     0.14800
C1554       C  0.82416169  0.26616487  0.57252688    -0.24200
H1555       H  0.87169873  0.15192020  0.71187758     0.05000
H1556       H  0.84679924  0.13361220  0.66054112     0.08200
H1557       H  0.83296534  0.14870455  0.73065700     0.08200
H1558       H  0.84146259  0.27070616  0.53803319     0.08200
H1559       H  0.82367625  0.28481760  0.60542133     0.08200
H1560       H  0.80217664  0.26562740  0.54971163     0.05000
O1561       O  0.88807423  0.90666410  0.82420718    -0.72300
O1562       O  0.91111011  0.84395016  0.71815439    -0.72500
O1563       O  0.91184011  0.90442782  0.71468680    -0.72400
O1564       O  0.88759088  0.84537095  0.82759883    -0.72400
O1565       O  0.84279948  0.84566379  0.79053036    -0.72400
O1566       O  0.86702015  0.90467983  0.67774398    -0.72400
O1567       O  0.86629476  0.84363239  0.68122402    -0.72300
O1568       O  0.84327919  0.90611360  0.78724497    -0.72500
V1569       V  0.89873350  0.87511711  0.77072469     1.35200
V1570       V  0.85578911  0.87504921  0.73465471     1.35200
C1571       C  0.86215452  0.91784181  0.82193349     0.76900
C1572       C  0.89206624  0.83223828  0.68375656     0.77000
C1573       C  0.89305544  0.91550685  0.67889418     0.76900
C1574       C  0.86162201  0.83441453  0.82606637     0.76800
O1575       O  0.59205986  0.90464090  0.70676774    -0.72300
O1576       O  0.61530916  0.84556594  0.82062923    -0.72500
O1577       O  0.61593669  0.90669238  0.81586647    -0.72400
O1578       O  0.59136265  0.84409764  0.71151865    -0.72400
O1579       O  0.63616170  0.84228958  0.67455175    -0.72400
O1580       O  0.66052561  0.90547046  0.77774665    -0.72400
O1581       O  0.66011793  0.84510105  0.78349135    -0.72300
O1582       O  0.63664571  0.90351958  0.66862892    -0.72500
V1583       V  0.60458641  0.87524088  0.76319727     1.35200
V1584       V  0.64742533  0.87410868  0.72654457     1.35200
C1585       C  0.61092351  0.91509605  0.67027311     0.76900
C1586       C  0.64122310  0.83440187  0.81957536     0.77000
C1587       C  0.64190818  0.91758221  0.81259345     0.76900
C1588       C  0.61010286  0.83155870  0.67754659     0.76800
O1589       O  0.96987790  0.78165803  0.54253310    -0.72300
O1590       O  0.52965782  0.75963966  0.43026040    -0.72500
O1591       O  0.96881011  0.75990043  0.43135168    -0.72400
O1592       O  0.52989215  0.78137118  0.54137328    -0.72400
O1593       O  0.53043197  0.73563856  0.57538303    -0.72400
O1594       O  0.96916695  0.71418200  0.46547078    -0.72400
O1595       O  0.52930375  0.71387789  0.46418732    -0.72300
O1596       O  0.96945071  0.73595972  0.57679398    -0.72500
V1597       V  0.49955507  0.76968690  0.48678542     1.35200
V1598       V  0.49957202  0.72584592  0.52005243     1.35200
C1599       C  0.95863399  0.76219055  0.57692439     0.76900
C1600       C  0.54062050  0.73348524  0.43017670     0.77000
C1601       C  0.95772256  0.73380139  0.43162601     0.76900
C1602       C  0.54147170  0.76176993  0.57505815     0.76800
C1603       C  0.88212720  0.75462650  0.63318306     0.79700
N1604       N  0.90960062  0.74774827  0.61207091    -0.78600
C1605       C  0.93132897  0.76888681  0.61039578     0.82100
N1606       N  0.92568535  0.79701436  0.63145477    -0.78600
C1607       C  0.89821370  0.80376177  0.65360537     0.82200
N1608       N  0.87655484  0.78260882  0.65375678    -0.80300
C1609       C  0.61864464  0.75351128  0.62810823     0.79700
N1610       N  0.59088212  0.74683079  0.60823888    -0.78600
C1611       C  0.56929946  0.76823210  0.60718781     0.82100
N1612       N  0.57544961  0.79639241  0.62759366    -0.78600
C1613       C  0.60321968  0.80293675  0.64839818     0.82200
N1614       N  0.62461865  0.78151612  0.64801194    -0.80300
O1615       O  0.97098607  0.51025491  0.56849388    -0.72300
O1616       O  0.53017286  0.53281532  0.45467840    -0.72500
O1617       O  0.97008571  0.53314560  0.45817098    -0.72400
O1618       O  0.53195593  0.50984422  0.56489282    -0.72400
O1619       O  0.53066238  0.96443015  0.52957433    -0.72400
O1620       O  0.96923163  0.98781107  0.42233924    -0.72400
O1621       O  0.53001643  0.98739708  0.41930558    -0.72300
O1622       O  0.97061165  0.96494889  0.53258922    -0.72500
V1623       V  0.50079740  0.52058262  0.51114499     1.35200
V1624       V  0.50013506  0.97709274  0.47640454     1.35200
C1625       C  0.95974831  0.98422906  0.56784135     0.76900
C1626       C  0.54111717  0.51348853  0.41963900     0.77000
C1627       C  0.95827498  0.51393736  0.42414490     0.76900
C1628       C  0.54272161  0.98361509  0.56324549     0.76800
C1629       C  0.62062764  0.99128291  0.61048780     0.79700
N1630       N  0.59276670  0.99776774  0.59121349    -0.78600
C1631       C  0.57090064  0.97683402  0.59330549     0.82100
N1632       N  0.57674685  0.94911655  0.61630604    -0.78600
C1633       C  0.60461683  0.94261466  0.63663130     0.82200
N1634       N  0.62633185  0.96367776  0.63335918    -0.80300
C1635       C  0.88305955  0.99223551  0.62460770     0.79700
N1636       N  0.91048947  0.99876708  0.60231612    -0.78600
C1637       C  0.93237032  0.97767022  0.60142548     0.82100
N1638       N  0.92693822  0.94975521  0.62402921    -0.78600
C1639       C  0.89946413  0.94323480  0.64640971     0.82200
N1640       N  0.87787400  0.96433935  0.64572477    -0.80300
O1641       O  0.71902372  0.76393555  0.07370383    -0.72300
O1642       O  0.78084981  0.78607793  0.96582269    -0.72500
O1643       O  0.72080603  0.78636314  0.96318039    -0.72400
O1644       O  0.77994377  0.76362246  0.07643285    -0.72400
O1645       O  0.77976315  0.71813401  0.04137475    -0.72400
O1646       O  0.72061069  0.74082946  0.92832990    -0.72400
O1647       O  0.78146222  0.74056399  0.93088109    -0.72300
O1648       O  0.71972072  0.71840997  0.03886482    -0.72500
V1649       V  0.75016915  0.77406533  0.01935440     1.35200
V1650       V  0.75039269  0.73042941  0.98527355     1.35200
C1651       C  0.70793237  0.73785529  0.07247466     0.76900
C1652       C  0.79257532  0.76662492  0.93217087     0.77000
C1653       C  0.70960280  0.76695919  0.92877752     0.76900
C1654       C  0.79085716  0.73743977  0.07614561     0.76800
C1655       C  0.87016920  0.75769897  0.88342039     0.79700
N1656       N  0.84228008  0.75157404  0.90310254    -0.78600
C1657       C  0.82073686  0.77290286  0.90161060     0.82100
N1658       N  0.82699284  0.80062126  0.87914448    -0.78600
C1659       C  0.85490549  0.80672680  0.85858969     0.82200
N1660       N  0.87628306  0.78527664  0.86100348    -0.80300
C1661       C  0.63233259  0.75821281  0.87890202     0.79700
N1662       N  0.66017430  0.75196402  0.89863906    -0.78600
C1663       C  0.68177631  0.77320137  0.89702130     0.82100
N1664       N  0.67564970  0.80087336  0.87407198    -0.78600
C1665       C  0.64778445  0.80700526  0.85322876     0.82200
N1666       N  0.62632631  0.78570552  0.85613727    -0.80300
O1667       O  0.90789679  0.65491551  0.28596094    -0.72300
O1668       O  0.88328475  0.59420712  0.17687424    -0.72500
O1669       O  0.88359196  0.65556091  0.17719379    -0.72400
O1670       O  0.90767399  0.59428249  0.28543761    -0.72400
O1671       O  0.86292237  0.59334239  0.32278109    -0.72400
O1672       O  0.83930162  0.65584216  0.21680951    -0.72400
O1673       O  0.83855179  0.59538044  0.21429693    -0.72300
O1674       O  0.86360488  0.65469638  0.32549968    -0.72500
V1675       V  0.89469214  0.62474524  0.23183675     1.35200
V1676       V  0.85202579  0.62481986  0.26935134     1.35200
C1677       C  0.88940785  0.66601687  0.32247406     0.76900
C1678       C  0.85718528  0.58353948  0.17915514     0.77000
C1679       C  0.85795363  0.66718921  0.18097324     0.76900
C1680       C  0.88886631  0.58231110  0.32011655     0.76800
O1681       O  0.72099344  0.96698538  0.95319441    -0.72300
O1682       O  0.77726021  0.99008626  0.07120965    -0.72500
O1683       O  0.71652663  0.98987046  0.06304641    -0.72400
O1684       O  0.78094397  0.96732306  0.96102212    -0.72400
O1685       O  0.78191942  0.51260783  0.92466488    -0.72400
O1686       O  0.71837447  0.53541428  0.02819638    -0.72400
O1687       O  0.77838756  0.53537770  0.03481194    -0.72300
O1688       O  0.72110678  0.51254281  0.91806988    -0.72500
V1689       V  0.74895712  0.97950630  0.01166857     1.35200
V1690       V  0.74993259  0.52304680  0.97684867     1.35200
C1691       C  0.71026637  0.98633397  0.91796679     0.76900
C1692       C  0.78850754  0.51610087  0.07101209     0.77000
C1693       C  0.70581450  0.51615444  0.06125248     0.76900
C1694       C  0.79308264  0.98654655  0.92719796     0.76800
C1695       C  0.63326970  0.99470578  0.86721294     0.79700
N1696       N  0.66101145  0.00104891  0.88712590    -0.78600
C1697       C  0.68279638  0.98001015  0.88529669     0.82100
N1698       N  0.67677997  0.95218453  0.86314165    -0.78600
C1699       C  0.64886005  0.94579846  0.84297624     0.82200
N1700       N  0.62726637  0.96698759  0.84580655    -0.80300
C1701       C  0.87030179  0.99556131  0.87386695     0.79700
N1702       N  0.87652205  0.96769756  0.85327556    -0.78600
C1703       C  0.85538616  0.94600822  0.85303772     0.82100
N1704       N  0.82765261  0.95208313  0.87488348    -0.78600
C1705       C  0.82137669  0.97995409  0.89665221     0.82200
N1706       N  0.84271778  0.00151641  0.89573979    -0.80300
O1707       O  0.61297928  0.65804968  0.17467234    -0.72300
O1708       O  0.59025831  0.59492228  0.28012743    -0.72500
O1709       O  0.59010317  0.65542525  0.28473419    -0.72400
O1710       O  0.61313521  0.59694549  0.16993820    -0.72400
O1711       O  0.65813862  0.59641081  0.20587772    -0.72400
O1712       O  0.63514702  0.65533541  0.32045683    -0.72400
O1713       O  0.63523707  0.59388286  0.31610942    -0.72300
O1714       O  0.65804288  0.65691181  0.21025111    -0.72500
V1715       V  0.60255910  0.62632102  0.22785172     1.35200
V1716       V  0.64571497  0.62565048  0.26278678     1.35200
C1717       C  0.63895749  0.66899759  0.17635240     0.76900
C1718       C  0.60931934  0.58275925  0.31397629     0.77000
C1719       C  0.60917262  0.66642102  0.31995548     0.76900
C1720       C  0.63903767  0.58574395  0.17026873     0.76800
C1721       C  0.62832355  0.50914131  0.11538734     0.79700
N1722       N  0.62323562  0.53712690  0.13626189    -0.78600
C1723       C  0.64500230  0.55808344  0.13692569     0.82100
N1724       N  0.67247116  0.55124625  0.11478466    -0.78600
C1725       C  0.67772452  0.52331833  0.09213052     0.82200
N1726       N  0.65570736  0.50238148  0.09311174    -0.80300
C1727       C  0.86362655  0.50512069  0.13084864     0.79700
N1728       N  0.87046448  0.53297644  0.15078010    -0.78600
C1729       C  0.85006779  0.55541608  0.14859755     0.82100
N1730       N  0.82248927  0.55007064  0.12547570    -0.78600
C1731       C  0.81557325  0.52207986  0.10541869     0.82200
N1732       N  0.83605862  0.49983447  0.10892056    -0.80300
C1733       C  0.86650872  0.74584128  0.13643380     0.79700
N1734       N  0.87271980  0.71748702  0.15426212    -0.78600
C1735       C  0.85164601  0.69579460  0.15144229     0.82100
N1736       N  0.82420892  0.70232596  0.12895758    -0.78600
C1737       C  0.81808063  0.73069713  0.10974304     0.82200
N1738       N  0.83921119  0.75234097  0.11401277    -0.80300
C1739       C  0.63019299  0.74622116  0.12113564     0.79700
N1740       N  0.62408689  0.71845796  0.14260161    -0.78600
C1741       C  0.64562287  0.69716141  0.14511133     0.82100
N1742       N  0.67354889  0.70356469  0.12491381    -0.78600
C1743       C  0.67976664  0.73145431  0.10316703     0.82200
N1744       N  0.65813150  0.75273180  0.10210173    -0.80300
C1745       C  0.61717806  0.50414404  0.36187179     0.79700
N1746       N  0.58961936  0.49809761  0.38346986    -0.78600
C1747       C  0.56856086  0.51988481  0.38621363     0.82100
N1748       N  0.57501636  0.54803603  0.36606892    -0.78600
C1749       C  0.60268809  0.55420166  0.34406983     0.82200
N1750       N  0.62373087  0.53233195  0.34308900    -0.80300
C1751       C  0.88123510  0.50455515  0.37321186     0.79700
N1752       N  0.87475687  0.53222100  0.35152145    -0.78600
C1753       C  0.89578271  0.55408418  0.35082094     0.82100
N1754       N  0.92361808  0.54821208  0.37212768    -0.78600
C1755       C  0.93016503  0.52036808  0.39364355     0.82200
N1756       N  0.90899833  0.49871950  0.39367008    -0.80300
C1757       C  0.88042606  0.74264665  0.38037442     0.79700
N1758       N  0.90818141  0.74887069  0.40069965    -0.78600
C1759       C  0.92986183  0.72762508  0.39950973     0.82100
N1760       N  0.92388781  0.69998936  0.37623565    -0.78600
C1761       C  0.89613095  0.69386603  0.35476103     0.82200
N1762       N  0.87459844  0.71516505  0.35744168    -0.80300
C1763       C  0.61678803  0.74378462  0.37410257     0.79700
N1764       N  0.58926213  0.74929801  0.39625624    -0.78600
C1765       C  0.56831805  0.72742335  0.39755976     0.82100
N1766       N  0.57485768  0.69968528  0.37550641    -0.78600
C1767       C  0.60256093  0.69405051  0.35304291     0.82200
N1768       N  0.62344570  0.71604191  0.35321671    -0.80300
O1769       O  0.96942506  0.90609940  0.18202443    -0.72300
O1770       O  0.52995757  0.84681273  0.17440510    -0.72500
O1771       O  0.52914803  0.90669692  0.17336537    -0.72400
O1772       O  0.97001252  0.84600579  0.18304194    -0.72400
O1773       O  0.96742396  0.84511453  0.08553116    -0.72400
O1774       O  0.52546351  0.90663164  0.07610079    -0.72400
O1775       O  0.52681244  0.84651297  0.07695253    -0.72300
O1776       O  0.96573841  0.90519205  0.08491603    -0.72500
V1777       V  0.49955904  0.87637089  0.17634653     1.35200
V1778       V  0.49639342  0.87592666  0.08278743     1.35200
C1779       C  0.95709380  0.91567292  0.13475770     0.76900
C1780       C  0.53893655  0.83691834  0.12440298     0.77000
C1781       C  0.53775626  0.91660679  0.12301379     0.76900
C1782       C  0.95884715  0.83515028  0.13575208     0.76800
O1783       O  0.71800066  0.84523575  0.42574933    -0.72300
O1784       O  0.77922001  0.90408742  0.42154006    -0.72500
O1785       O  0.71952129  0.90557531  0.41999172    -0.72400
O1786       O  0.77774879  0.84394860  0.42819418    -0.72400
O1787       O  0.77963908  0.84278919  0.33061493    -0.72400
O1788       O  0.71915467  0.90221005  0.32256068    -0.72400
O1789       O  0.77888218  0.90260330  0.32427476    -0.72300
O1790       O  0.71961858  0.84234187  0.32826148    -0.72500
V1791       V  0.74859380  0.87466416  0.42203615     1.35200
V1792       V  0.74930470  0.87247617  0.32836173     1.35200
C1793       C  0.70856691  0.83375749  0.37748429     0.76900
C1794       C  0.78936811  0.91360303  0.37193689     0.77000
C1795       C  0.70946454  0.91433735  0.36995873     0.76900
C1796       C  0.78906943  0.83344370  0.38076310     0.76800
O1797       O  0.78084025  0.65547693  0.58028340    -0.72300
O1798       O  0.72191892  0.59457484  0.57302259    -0.72500
O1799       O  0.72124242  0.65477915  0.57937595    -0.72400
O1800       O  0.78174550  0.59551443  0.57357665    -0.72400
O1801       O  0.78077714  0.59214894  0.67090212    -0.72400
O1802       O  0.72105548  0.65228044  0.67690940    -0.72400
O1803       O  0.72132992  0.59234495  0.67036322    -0.72300
O1804       O  0.78118947  0.65200603  0.67771033    -0.72500
V1805       V  0.75140219  0.62502828  0.57843610     1.35200
V1806       V  0.75108311  0.62232712  0.67208073     1.35200
C1807       C  0.79134602  0.66370132  0.63022509     0.76900
C1808       C  0.71177766  0.58284163  0.62062552     0.77000
C1809       C  0.71075841  0.66347965  0.62903491     0.76900
C1810       C  0.79157504  0.58375828  0.62125524     0.76800
O1811       O  0.97406333  0.65768408  0.83435498    -0.72300
O1812       O  0.53107912  0.59532601  0.83587684    -0.72500
O1813       O  0.97154205  0.59767898  0.83541277    -0.72400
O1814       O  0.53371097  0.65505043  0.83504466    -0.72400
O1815       O  0.53185863  0.65698033  0.93259670    -0.72400
O1816       O  0.97251046  0.59652813  0.93276836    -0.72400
O1817       O  0.53242598  0.59673621  0.93315312    -0.72300
O1818       O  0.97217602  0.65667570  0.93163795    -0.72500
V1819       V  0.50256740  0.62644573  0.83708551     1.35200
V1820       V  0.50225833  0.62670379  0.93074939     1.35200
C1821       C  0.96312101  0.66773146  0.88252493     0.76900
C1822       C  0.54198683  0.58569968  0.88451207     0.77000
C1823       C  0.96152984  0.58708742  0.88414209     0.76900
C1824       C  0.54312013  0.66591002  0.88376944     0.76800
C1825       C  0.66797622  0.76015766  0.39742050    -0.20800
C1826       C  0.63973809  0.76740063  0.37474648    -0.07400
C1827       C  0.63427446  0.79664335  0.35241406     0.13500
C1828       C  0.65717495  0.81802899  0.35433013    -0.20900
C1829       C  0.68514709  0.81082037  0.37809327    -0.07400
C1830       C  0.69078119  0.78155582  0.39918066     0.13500
C1831       C  0.72124377  0.77256765  0.42068575    -0.24200
H1832       H  0.67219932  0.73764275  0.41383776     0.14700
H1833       H  0.65331851  0.84045959  0.33705950     0.14800
C1834       C  0.60488748  0.80510304  0.32438765    -0.24200
H1835       H  0.72195727  0.74875599  0.43540011     0.05000
H1836       H  0.72803639  0.78682007  0.45912523     0.08200
H1837       H  0.73732415  0.77544519  0.38325594     0.08200
H1838       H  0.58683016  0.80384919  0.35831279     0.08200
H1839       H  0.59984493  0.78973721  0.28653251     0.08200
H1840       H  0.60522589  0.82837596  0.30657991     0.05000
C1841       C  0.86369988  0.79495102  0.36334861    -0.20800
C1842       C  0.85685800  0.76575787  0.38275875    -0.07400
C1843       C  0.82797634  0.75944959  0.40498923     0.13500
C1844       C  0.80661051  0.78241223  0.40627178    -0.20900
C1845       C  0.81301529  0.81099146  0.38361776    -0.07400
C1846       C  0.84198584  0.81761384  0.36309463     0.13500
C1847       C  0.85015729  0.84879211  0.34257811    -0.24200
H1848       H  0.88593965  0.79988094  0.34721772     0.14700
H1849       H  0.78469000  0.77789027  0.42408125     0.14800
C1850       C  0.81964283  0.72886256  0.42869848    -0.24200
H1851       H  0.87389024  0.85023530  0.32878460     0.05000
H1852       H  0.84642650  0.86494528  0.37976085     0.08200
H1853       H  0.83622386  0.85544233  0.30362743     0.08200
H1854       H  0.83539233  0.72201074  0.46461836     0.08200
H1855       H  0.82016336  0.71217115  0.39182436     0.08200
H1856       H  0.79681700  0.72865594  0.44798279     0.05000
C1857       C  0.84193250  0.97610728  0.32088204    -0.20800
C1858       C  0.85834105  0.98086988  0.37342288    -0.07400
C1859       C  0.85225588  0.96342047  0.42500042     0.13500
C1860       C  0.82959147  0.94185962  0.42288447    -0.20900
C1861       C  0.81311631  0.93679743  0.37022140    -0.07400
C1862       C  0.81965461  0.95410242  0.31814333     0.13500
C1863       C  0.80324689  0.95012775  0.25960387    -0.24200
H1864       H  0.84685599  0.48954069  0.28144680     0.14700
H1865       H  0.82489130  0.92870186  0.46276309     0.14800
C1866       C  0.86878685  0.96812436  0.48305230    -0.24200
H1867       H  0.80731756  0.42735037  0.24156659     0.05000
H1868       H  0.81078781  0.96638708  0.22489671     0.08200
H1869       H  0.77901912  0.95369801  0.26661154     0.08200
H1870       H  0.86678343  0.99192774  0.49679792     0.08200
H1871       H  0.89263016  0.96222604  0.47744967     0.08200
H1872       H  0.85973239  0.95395212  0.51985379     0.05000
C1873       C  0.66821350  0.98804367  0.38773875    -0.20800
C1874       C  0.64053077  0.98083887  0.36245292    -0.07400
C1875       C  0.63591643  0.95184288  0.33846420     0.13500
C1876       C  0.65920480  0.93085391  0.34040715    -0.20900
C1877       C  0.68660209  0.93790392  0.36695838    -0.07400
C1878       C  0.69129196  0.96692315  0.39064770     0.13500
C1879       C  0.72045973  0.97672595  0.41781006    -0.24200
H1880       H  0.67180772  0.51030830  0.40594176     0.14700
H1881       H  0.65585200  0.90857440  0.32214760     0.14800
C1882       C  0.60687011  0.94305285  0.30957896    -0.24200
H1883       H  0.71694908  0.48296085  0.46553628     0.05000
H1884       H  0.72895842  0.99663321  0.39313733     0.08200
H1885       H  0.73797717  0.95926527  0.41583346     0.08200
H1886       H  0.60173471  0.95866261  0.27224809     0.08200
H1887       H  0.58861803  0.94364726  0.34315538     0.08200
H1888       H  0.60775134  0.91999355  0.29082469     0.05000
C1889       C  0.55743274  0.78719390  0.09277429    -0.20800
C1890       C  0.56295071  0.81453969  0.12158074    -0.07400
C1891       C  0.59109251  0.81995475  0.14760452     0.13500
C1892       C  0.61284136  0.79737851  0.14577935    -0.20900
C1893       C  0.60680520  0.76941136  0.11973070    -0.07400
C1894       C  0.57881009  0.76424374  0.09263405     0.13500
C1895       C  0.57154452  0.73483268  0.06273281    -0.24200
H1896       H  0.53606041  0.78352734  0.07154959     0.14700
H1897       H  0.63446625  0.80133429  0.16587631     0.14800
C1898       C  0.59849459  0.84979048  0.17564753    -0.24200
H1899       H  0.54941693  0.73543832  0.04049237     0.05000
H1900       H  0.57103533  0.71656146  0.09659260     0.08200
H1901       H  0.58859484  0.72962243  0.02815894     0.08200
H1902       H  0.58360008  0.85412258  0.21445138     0.08200
H1903       H  0.59565534  0.86795864  0.14194525     0.08200
H1904       H  0.62182720  0.85048074  0.19211823     0.05000
C1905       C  0.91764246  0.76215018  0.11259223    -0.20800
C1906       C  0.88995286  0.76887786  0.13845221    -0.07400
C1907       C  0.88548742  0.79698562  0.16629915     0.13500
C1908       C  0.90880626  0.81794872  0.16663263    -0.20900
C1909       C  0.93604549  0.81158127  0.13863568    -0.07400
C1910       C  0.94067611  0.78331083  0.11180799     0.13500
C1911       C  0.97014804  0.77515324  0.08387844    -0.24200
H1912       H  0.92109261  0.74038823  0.09205528     0.14700
H1913       H  0.90555172  0.83967112  0.18746886     0.14800
C1914       C  0.85649835  0.80469868  0.19669543    -0.24200
H1915       H  0.97020103  0.75182712  0.06642414     0.05000
H1916       H  0.98794139  0.77699349  0.11824307     0.08200
H1917       H  0.97516911  0.79043701  0.04580765     0.08200
H1918       H  0.85141704  0.78780117  0.23193900     0.08200
H1919       H  0.83818593  0.80519744  0.16331210     0.08200
H1920       H  0.85743234  0.82710272  0.21818309     0.05000
C1921       C  0.90665791  0.98072073  0.18041074    -0.20800
C1922       C  0.88628277  0.98099735  0.13260055    -0.07400
C1923       C  0.88891996  0.95922985  0.08661071     0.13500
C1924       C  0.91211850  0.93824929  0.08937661    -0.20900
C1925       C  0.93270818  0.93810188  0.13681728    -0.07400
C1926       C  0.92974842  0.95954033  0.18339373     0.13500
C1927       C  0.95120409  0.96105460  0.23538476    -0.24200
H1928       H  0.90451300  0.49728544  0.21579297     0.14700
H1929       H  0.91418208  0.92173863  0.05392819     0.14800
C1930       C  0.86827693  0.95846457  0.03314007    -0.24200
H1931       H  0.94619697  0.48018274  0.26572398     0.05000
H1932       H  0.97428064  0.96396335  0.21836699     0.08200
H1933       H  0.94969599  0.94024262  0.26262172     0.08200
H1934       H  0.86840337  0.98055775  0.01010358     0.08200
H1935       H  0.84532453  0.95282738  0.04777873     0.08200
H1936       H  0.87509568  0.94127079  0.99978732     0.05000
C1937       C  0.56016897  0.96313577  0.16156598    -0.20800
C1938       C  0.56123377  0.93973329  0.11971454    -0.07400
C1939       C  0.58449068  0.93914293  0.07668525     0.13500
C1940       C  0.60543475  0.96246464  0.07583502    -0.20900
C1941       C  0.60438995  0.98606928  0.11751507    -0.07400
C1942       C  0.58121361  0.98636484  0.16109819     0.13500
C1943       C  0.57863003  0.51035245  0.20858655    -0.24200
H1944       H  0.54242629  0.96340832  0.19465701     0.14700
H1945       H  0.62305992  0.96189405  0.04251622     0.14800
C1946       C  0.58910027  0.91381583  0.03274770    -0.24200
H1947       H  0.56061327  0.50542177  0.24138170     0.05000
H1948       H  0.57332353  0.53227272  0.18747743     0.08200
H1949       H  0.59977952  0.51195369  0.23404862     0.08200
H1950       H  0.57388660  0.89464340  0.03965299     0.08200
H1951       H  0.61206052  0.90487229  0.03771434     0.08200
H1952       H  0.58632002  0.92233904  0.98618497     0.05000
C1953       C  0.89557566  0.53732462  0.92615369    -0.20800
C1954       C  0.89371982  0.51889048  0.87526427    -0.07400
C1955       C  0.91405566  0.52324242  0.82739531     0.13500
C1956       C  0.93571885  0.54570097  0.83205493    -0.20900
C1957       C  0.93796328  0.56383441  0.88332965    -0.07400
C1958       C  0.91750973  0.55959309  0.93113915     0.13500
C1959       C  0.91802137  0.57870934  0.98695155    -0.24200
H1960       H  0.87996626  0.53399278  0.96275074     0.14700
H1961       H  0.95122667  0.54897494  0.79527279     0.14800
C1962       C  0.91238186  0.00542142  0.77002758    -0.24200
H1963       H  0.89940315  0.57313281  0.01792747     0.05000
H1964       H  0.91591378  0.60275346  0.97452837     0.08200
H1965       H  0.93908363  0.57498110  0.01190285     0.08200
H1966       H  0.89005229  0.00824351  0.74984529     0.08200
H1967       H  0.91686159  0.98135954  0.77890407     0.08200
H1968       H  0.92901120  0.01309996  0.73638363     0.05000
C1969       C  0.60727580  0.53442557  0.92419763    -0.20800
C1970       C  0.60958101  0.51747048  0.87135422    -0.07400
C1971       C  0.58972447  0.52295341  0.82345706     0.13500
C1972       C  0.56784424  0.54505663  0.82998982    -0.20900
C1973       C  0.56519747  0.56201207  0.88296755    -0.07400
C1974       C  0.58532680  0.55660579  0.93085006     0.13500
C1975       C  0.58453449  0.57437583  0.98840281    -0.24200
H1976       H  0.62271083  0.03016496  0.96063344     0.14700
H1977       H  0.55267676  0.54913180  0.79302137     0.14800
C1978       C  0.59218740  0.50658756  0.76435889    -0.24200
H1979       H  0.60279891  0.06781368  0.01934702     0.05000
H1980       H  0.56315428  0.57043879  0.01216961     0.08200
H1981       H  0.58717370  0.59863836  0.97838662     0.08200
H1982       H  0.58728522  0.48240305  0.77058870     0.08200
H1983       H  0.61496890  0.50934529  0.74586864     0.08200
H1984       H  0.57622858  0.51537662  0.73052734     0.05000
C1985       C  0.55886886  0.71780154  0.90286107    -0.20800
C1986       C  0.56633597  0.68892532  0.88351047    -0.07400
C1987       C  0.59545333  0.68265453  0.86345082     0.13500
C1988       C  0.61662833  0.70571975  0.86302429    -0.20900
C1989       C  0.60905730  0.73494185  0.88090375    -0.07400
C1990       C  0.57976796  0.74111253  0.90105016     0.13500
C1991       C  0.57054728  0.77186327  0.92228385    -0.24200
H1992       H  0.53639320  0.72221510  0.91839094     0.14700
H1993       H  0.63908383  0.70104267  0.84771943     0.14800
C1994       C  0.60428326  0.65157884  0.84362440    -0.24200
H1995       H  0.54752586  0.77189122  0.94060166     0.05000
H1996       H  0.57110415  0.78799229  0.88430805     0.08200
H1997       H  0.58575691  0.77958028  0.95837316     0.08200
H1998       H  0.59084066  0.64480983  0.80410464     0.08200
H1999       H  0.60046547  0.63537479  0.88078749     0.08200
H2000       H  0.62816465  0.65045298  0.83076685     0.05000
C2001       C  0.91309449  0.73277965  0.83518568    -0.20800
C2002       C  0.89364633  0.73446389  0.88438949    -0.07400
C2003       C  0.89764056  0.71472635  0.93353008     0.13500
C2004       C  0.92073687  0.69356610  0.93164182    -0.20900
C2005       C  0.93981718  0.69132365  0.88176934    -0.07400
C2006       C  0.93604181  0.71148011  0.83294212     0.13500
C2007       C  0.95629693  0.71140266  0.77880646    -0.24200
H2008       H  0.91007356  0.74808113  0.79774556     0.14700
H2009       H  0.92362217  0.67835695  0.96923792     0.14800
C2010       C  0.87837376  0.71639464  0.98892912    -0.24200
H2011       H  0.95097136  0.72995536  0.74718011     0.05000
H2012       H  0.95374382  0.69010387  0.75364365     0.08200
H2013       H  0.97979137  0.71422279  0.79327191     0.08200
H2014       H  0.85512532  0.71007180  0.97794296     0.08200
H2015       H  0.87884550  0.73952320  0.00723797     0.08200
H2016       H  0.88621977  0.70088130  0.02466865     0.05000
C2017       C  0.81186155  0.53609953  0.65928993    -0.20800
C2018       C  0.81473808  0.56034103  0.61970407    -0.07400
C2019       C  0.83967806  0.56192836  0.58116242     0.13500
C2020       C  0.86161371  0.53960797  0.58473128    -0.20900
C2021       C  0.85884345  0.51505780  0.62417864    -0.07400
C2022       C  0.83306077  0.51305268  0.66134514     0.13500
C2023       C  0.82707592  0.48707461  0.70341880    -0.24200
H2024       H  0.79241973  0.53491964  0.68813856     0.14700
H2025       H  0.88087620  0.04118701  0.55553047     0.14800
C2026       C  0.84372339  0.58735310  0.53713674    -0.24200
H2027       H  0.80640372  0.49040594  0.73004375     0.05000
H2028       H  0.84554638  0.48434659  0.73588968     0.08200
H2029       H  0.82404144  0.46612093  0.67731134     0.08200
H2030       H  0.84338722  0.60913515  0.56116450     0.08200
H2031       H  0.82563517  0.58692974  0.50322793     0.08200
H2032       H  0.86521969  0.08567568  0.51262228     0.05000
C2033       C  0.66486533  0.51421827  0.65781925    -0.20800
C2034       C  0.64419947  0.51451986  0.61056155    -0.07400
C2035       C  0.64673237  0.53667013  0.56512988     0.13500
C2036       C  0.66923985  0.55838506  0.56945359    -0.20900
C2037       C  0.68913038  0.55876740  0.61807202    -0.07400
C2038       C  0.68717718  0.53602191  0.66244010     0.13500
C2039       C  0.70887807  0.53388074  0.71401171    -0.24200
H2040       H  0.66326590  0.49702950  0.69218095     0.14700
H2041       H  0.67100818  0.57551005  0.53500306     0.14800
C2042       C  0.62658330  0.53711701  0.51097955    -0.24200
H2043       H  0.70508761  0.51346998  0.74169270     0.05000
H2044       H  0.70630861  0.55350545  0.74413563     0.08200
H2045       H  0.73201879  0.53286809  0.69647701     0.08200
H2046       H  0.60343596  0.54256717  0.52455272     0.08200
H2047       H  0.62713776  0.01489714  0.48861000     0.08200
H2048       H  0.63360824  0.55424739  0.47756254     0.05000
C2049       C  0.69183430  0.71337342  0.59987102    -0.20800
C2050       C  0.68709824  0.68632251  0.63052758    -0.07400
C2051       C  0.65960107  0.68113931  0.65962908     0.13500
C2052       C  0.63738083  0.70329194  0.65726190    -0.20900
C2053       C  0.64237022  0.73064534  0.62771011    -0.07400
C2054       C  0.66995722  0.73582392  0.59879352     0.13500
C2055       C  0.67617670  0.76460413  0.56542469    -0.24200
H2056       H  0.71291506  0.71704382  0.57720720     0.14700
H2057       H  0.61618080  0.69945824  0.67931986     0.14800
C2058       C  0.65333315  0.65197708  0.69155001    -0.24200
H2059       H  0.69831334  0.76412508  0.54328646     0.05000
H2060       H  0.67612625  0.78381507  0.59700003     0.08200
H2061       H  0.65900420  0.76820427  0.53029063     0.08200
H2062       H  0.66894280  0.64912198  0.72975223     0.08200
H2063       H  0.65603222  0.63295656  0.65985180     0.08200
H2064       H  0.63029541  0.65125714  0.70968163     0.05000
C2065       C  0.86383384  0.70428612  0.66134994    -0.20800
C2066       C  0.85841223  0.73188474  0.63309251    -0.07400
C2067       C  0.83085055  0.73700385  0.60418093     0.13500
C2068       C  0.80948490  0.71411673  0.60356859    -0.20900
C2069       C  0.81468430  0.68674377  0.63271506    -0.07400
C2070       C  0.84209265  0.68170692  0.66221134     0.13500
C2071       C  0.84880482  0.65233525  0.69302684    -0.24200
H2072       H  0.88506483  0.70054137  0.68332149     0.14700
H2073       H  0.78842538  0.71770228  0.58084378     0.14800
C2074       C  0.82415980  0.76617338  0.57254792    -0.24200
H2075       H  0.87170694  0.65191773  0.71184882     0.05000
H2076       H  0.84680785  0.63361430  0.66050503     0.08200
H2077       H  0.83297413  0.64869649  0.73062976     0.08200
H2078       H  0.84145992  0.77071813  0.53805440     0.08200
H2079       H  0.82367392  0.78482354  0.60544821     0.08200
H2080       H  0.80217448  0.76563654  0.54973369     0.05000
loop_ 
_geom_bond_atom_site_label_1 
_geom_bond_atom_site_label_2 
_geom_bond_distance 
_geom_bond_site_symmetry_2 
_ccdc_geom_bond_type 
O1            V9   1.905       .  S
O1           C11   1.267       .  A
O2            V9   1.901       .  S
O2           C12   1.262       .  A
O3            V9   1.898       .  S
O3           C13   1.261       .  A
O4            V9   1.899       .  S
O4           C14   1.265       .  A
O5           V10   1.897       .  S
O5           C14   1.261       .  A
O6           V10   1.897       .  S
O6           C13   1.265       .  A
O7           V10   1.898       .  S
O7           C12   1.265       .  A
O8           V10   1.900       .  S
O8           C11   1.262       .  A
V9           V10   2.090       .  T
C11         C143   1.467       .  S
C12          C47   1.463       .  S
C13          C79   1.460       .  S
C14          C99   1.461       .  S
O15          V23   1.899       .  S
O15          C25   1.262       .  A
O16          V23   1.900       .  S
O16          C26   1.266       .  A
O17          V23   1.900       .  S
O17          C27   1.266       .  A
O18          V23   1.901       .  S
O18          C28   1.262       .  A
O19          V24   1.902       .  S
O19          C28   1.266       .  A
O20          V24   1.900       .  S
O20          C27   1.262       .  A
O21          V24   1.897       .  S
O21          C26   1.261       .  A
O22          V24   1.900       .  S
O22          C25   1.265       .  A
V23          V24   2.089       .  T
C25          C73   1.464       .  S
C26         C105   1.462       .  S
C27         C139   1.463       .  S
C28          C53   1.466       .  S
O29        V1077   1.897       .  S
O29          C39   1.262       .  A
O30          V37   1.900   1_455  S
O30          C40   1.265       .  A
O31        V1077   1.904       .  S
O31          C41   1.266       .  A
O32          V37   1.900   1_455  S
O32          C42   1.263       .  A
O33          V38   1.906   1_455  S
O33          C42   1.266       .  A
O34        V1078   1.902       .  S
O34          C41   1.263       .  A
O35          V38   1.901   1_455  S
O35          C40   1.262       .  A
O36        V1078   1.904       .  S
O36          C39   1.266       .  A
V37        O1069   1.897       .  S
V37        O1071   1.904       .  S
V37          V38   2.089       .  T
V38        O1074   1.902       .  S
V38        O1076   1.904       .  S
C39          C45   1.465       .  S
C40         C205   1.465       .  S
C41         C199   1.468       .  S
C42          C51   1.469       .  S
C43         C506   1.471       .  S
C43          N44   1.355       .  A
C43          N48   1.353       .  A
N44          C45   1.357       .  A
C45          N46   1.363       .  A
N46          C47   1.362       .  A
C47          N48   1.355       .  A
C49         C493   1.474       .  S
C49          N50   1.357       .  A
C49          N54   1.353       .  A
N50          C51   1.360       .  A
C51          N52   1.364       .  A
N52          C53   1.363       .  A
C53          N54   1.354       .  A
O55        V1103   1.905       .  S
O55         C585   1.266   1_545  A
O56          V63   1.901       .  S
O56          C66   1.262       .  A
O57        V1103   1.899       .  S
O57          C67   1.262       .  A
O58          V63   1.902       .  S
O58         C588   1.266   1_545  A
O59          V64   1.897       .  S
O59          C68   1.261       .  A
O60        V1104   1.898       .  S
O60         C587   1.265       .  A
O61          V64   1.903       .  S
O61         C586   1.266       .  A
O62        V1104   1.900       .  S
O62          C65   1.263       .  A
V63        O1095   1.905   1_455  S
V63        O1097   1.899   1_455  S
V63         V584   2.089   1_545  T
V64        O1100   1.898   1_455  S
V64        O1102   1.900   1_455  S
V64         V583   2.089       .  T
C65         O575   1.266       .  A
C65          C77   1.468       .  S
C66         O581   1.266   1_545  A
C66         C187   1.467       .  S
C67         O580   1.265   1_545  A
C67         C195   1.462       .  S
C68         O578   1.266       .  A
C68          C71   1.463       .  S
C69         C994   1.481       .  S
C69          N70   1.354       .  A
C69          N74   1.355       .  A
N70          C71   1.356       .  A
C71          N72   1.362       .  A
N72          C73   1.362       .  A
C73          N74   1.356       .  A
C75         C981   1.489       .  S
C75          N76   1.359       .  A
C75          N80   1.349       .  A
N76          C77   1.360       .  A
C77          N78   1.364       .  A
N78          C79   1.361       .  A
C79          N80   1.351       .  A
O81          V89   1.902       .  S
O81          C91   1.266       .  A
O82          V89   1.898   1_556  S
O82          C92   1.262       .  A
O83          V89   1.898   1_556  S
O83          C93   1.262       .  A
O84          V89   1.902       .  S
O84          C94   1.266       .  A
O85          V90   1.897   1_554  S
O85          C94   1.262       .  A
O86          V90   1.900       .  S
O86          C93   1.265       .  A
O87          V90   1.901       .  S
O87          C92   1.265       .  A
O88          V90   1.898   1_554  S
O88          C91   1.262       .  A
V89          V90   2.090   1_554  T
C91         C183   1.465       .  S
C92          C97   1.462       .  S
C93         C103   1.463       .  S
C94         C177   1.464       .  S
C95         C442   1.478       .  S
C95          N96   1.354       .  A
C95         N100   1.354       .  A
N96          C97   1.356       .  A
C97          N98   1.362       .  A
N98          C99   1.361       .  A
C99         N100   1.356       .  A
C101        C429   1.474       .  S
C101        N102   1.354       .  A
C101        N106   1.353       .  A
N102        C103   1.356       .  A
C103        N104   1.362       .  A
N104        C105   1.362       .  A
C105        N106   1.355       .  A
O107        V115   1.903       .  S
O107        C117   1.263       .  A
O108        V115   1.903       .  S
O108        C118   1.266       .  A
O109        V115   1.900       .  S
O109        C119   1.265       .  A
O110        V115   1.898       .  S
O110        C120   1.262       .  A
O111        V116   1.902       .  S
O111        C120   1.266       .  A
O112        V116   1.898       .  S
O112        C119   1.262       .  A
O113        V116   1.897       .  S
O113        C118   1.261       .  A
O114        V116   1.901       .  S
O114        C117   1.266       .  A
V115        V116   2.089       .  T
C117        C201   1.468       .  S
C118        C169   1.463       .  S
C119        C175   1.461       .  S
C120        C193   1.464       .  S
O121        V129   1.895   1_556  S
O121        C131   1.260       .  A
O122        V129   1.898       .  S
O122        C652   1.265       .  A
O123        V129   1.908       .  S
O123        C653   1.267       .  A
O124        V129   1.905   1_556  S
O124        C134   1.263       .  A
O125        V130   1.905       .  S
O125        C654   1.266   1_545  A
O126        V130   1.902   1_554  S
O126        C133   1.263       .  A
O127        V130   1.899   1_554  S
O127        C132   1.262       .  A
O128        V130   1.901       .  S
O128        C651   1.266   1_545  A
V129        V650   2.089   1_554  T
V130        V649   2.089   1_546  T
C131        O648   1.266       .  A
C131        C137   1.460       .  S
C132        O642   1.265   1_545  A
C132        C171   1.462       .  S
C133        O643   1.267   1_545  A
C133        C165   1.471       .  S
C134        O645   1.266       .  A
C134        C145   1.470       .  S
C135        C930   1.473       .  S
C135        N136   1.353       .  A
C135        N140   1.353       .  A
N136        C137   1.355       .  A
C137        N138   1.363       .  A
N138        C139   1.363       .  A
C139        N140   1.355       .  A
C141        C914   1.480       .  S
C141        N142   1.354       .  A
C141        N146   1.357       .  A
N142        C143   1.355       .  A
C143        N144   1.364       .  A
N144        C145   1.364       .  A
C145        N146   1.358       .  A
O147        V155   1.901       .  S
O147        C157   1.265       .  A
O148        V155   1.901       .  S
O148        C158   1.262       .  A
O149        V155   1.898       .  S
O149        C159   1.262       .  A
O150        V155   1.899       .  S
O150        C160   1.266       .  A
O151        V156   1.903       .  S
O151        C160   1.262       .  A
O152        V156   1.905       .  S
O152        C159   1.266       .  A
O153        V156   1.905       .  S
O153        C158   1.266       .  A
O154        V156   1.900       .  S
O154        C157   1.262       .  A
V155        V156   2.089       .  T
C157        C181   1.465       .  S
C158        C189   1.468       .  S
C159        C207   1.466       .  S
C160        C163   1.465       .  S
C161        C901   1.489   1_545  S
C161        N162   1.351       .  A
C161        N166   1.359       .  A
N162        C163   1.353       .  A
C163        N164   1.362       .  A
N164        C165   1.365       .  A
C165        N166   1.360       .  A
C167        C882   1.480   1_545  S
C167        N168   1.355       .  A
C167        N172   1.352   1_545  A
N168        C169   1.357       .  A
C169        N170   1.363       .  A
N170        C171   1.362       .  A
C171        N172   1.354   1_545  A
C173        C346   1.472       .  S
C173        N174   1.353       .  A
C173        N178   1.355       .  A
N174        C175   1.355       .  A
C175        N176   1.361       .  A
N176        C177   1.362       .  A
C177        N178   1.357       .  A
C179        C333   1.474       .  S
C179        N180   1.354       .  A
C179        N184   1.355       .  A
N180        C181   1.356       .  A
C181        N182   1.362       .  A
N182        C183   1.362       .  A
C183        N184   1.358       .  A
C185        C834   1.476   1_545  S
C185        N186   1.354   1_545  A
C185        N190   1.356       .  A
N186        C187   1.357   1_565  A
C187        N188   1.363       .  A
N188        C189   1.363       .  A
C189        N190   1.357       .  A
C191        C818   1.474   1_545  S
C191        N192   1.355       .  A
C191        N196   1.353   1_545  A
N192        C193   1.358       .  A
C193        N194   1.362       .  A
N194        C195   1.362       .  A
C195        N196   1.355   1_545  A
C197        C282   1.478       .  S
C197        N198   1.355       .  A
C197        N202   1.354       .  A
N198        C199   1.358       .  A
C199        N200   1.364       .  A
N200        C201   1.363       .  A
C201        N202   1.356       .  A
C203        C266   1.474       .  S
C203        N204   1.353       .  A
C203        N208   1.355       .  A
N204        C205   1.356       .  A
C205        N206   1.363       .  A
N206        C207   1.364       .  A
C207        N208   1.357       .  A
O209       V1257   1.898       .  S
O209        C219   1.263       .  A
O210        V217   1.897   1_455  S
O210        C220   1.264       .  A
O211        V217   1.897   1_455  S
O211        C221   1.264       .  A
O212       V1257   1.902       .  S
O212        C222   1.264       .  A
O213       V1258   1.893       .  S
O213        C222   1.262       .  A
O214        V218   1.898   1_455  S
O214        C221   1.264       .  A
O215        V218   1.897   1_455  S
O215        C220   1.263       .  A
O216       V1258   1.897       .  S
O216        C219   1.265       .  A
V217       O1249   1.898       .  S
V217       O1252   1.902       .  S
V217        V218   2.088       .  T
V218       O1253   1.893       .  S
V218       O1256   1.897       .  S
C219        C365   1.483       .  S
C220        C330   1.470       .  S
C221        C378   1.477       .  S
C222        C349   1.469       .  S
O223        V231   1.902       .  S
O223        C233   1.265       .  A
O224        V231   1.901       .  S
O224        C234   1.267       .  A
O225        V231   1.898       .  S
O225        C235   1.263       .  A
O226        V231   1.899       .  S
O226        C236   1.262       .  A
O227        V232   1.899       .  S
O227        C236   1.264       .  A
O228        V232   1.898       .  S
O228        C235   1.263       .  A
O229        V232   1.892       .  S
O229        C234   1.261       .  A
O230        V232   1.893       .  S
O230        C233   1.261       .  A
V231        V232   2.088       .  T
C233        C269   1.467       .  S
C234        C301   1.486       .  S
C235        C317   1.470       .  S
C236        C285   1.470       .  S
O237        V245   1.896       .  S
O237        C247   1.263       .  A
O238        V245   1.901       .  S
O238        C248   1.265       .  A
O239        V245   1.895       .  S
O239        C249   1.263       .  A
O240        V245   1.897       .  S
O240        C250   1.263       .  A
O241        V246   1.894       .  S
O241        C250   1.264       .  A
O242        V246   1.900       .  S
O242        C249   1.264       .  A
O243        V246   1.891       .  S
O243        C248   1.262       .  A
O244        V246   1.897       .  S
O244        C247   1.263       .  A
V245        V246   2.088       .  T
C247        C509   1.469       .  S
C248        C477   1.480       .  S
C249        C490   1.472       .  S
C250        C458   1.474       .  S
O251       V1299   1.892       .  S
O251        C261   1.262       .  A
O252        V259   1.887       .  S
O252        C262   1.263       .  A
O253       V1299   1.895       .  S
O253        C263   1.265       .  A
O254        V259   1.894       .  S
O254        C264   1.262       .  A
O255        V260   1.896       .  S
O255        C264   1.262       .  A
O256       V1300   1.897       .  S
O256        C263   1.263       .  A
O257        V260   1.903       .  S
O257        C262   1.265       .  A
O258       V1300   1.900       .  S
O258        C261   1.266       .  A
V259       O1291   1.892   1_455  S
V259       O1293   1.895   1_455  S
V259        V260   2.085       .  T
V260       O1296   1.897   1_455  S
V260       O1298   1.900   1_455  S
C261        C445   1.483       .  S
C262        C413   1.484       .  S
C263        C397   1.482       .  S
C264        C426   1.463       .  S
C265        C266   1.402       .  A
C265        C270   1.401       .  A
C265        H272   1.084       .  S
C266        C267   1.416       .  A
C267        C268   1.404       .  A
C267        C274   1.508       .  S
C268        C269   1.400       .  A
C268        H273   1.085       .  S
C269        C270   1.409       .  A
C270        C271   1.504       .  S
C271        H275   1.111       .  S
C271        H276   1.110       .  S
C271        H277   1.109       .  S
C274        H278   1.109       .  S
C274        H279   1.111       .  S
C274        H280   1.110       .  S
C281        C282   1.405       .  A
C281        C286   1.404       .  A
C281        H288   1.083       .  S
C282        C283   1.416       .  A
C283        C284   1.403       .  A
C283        C290   1.509       .  S
C284        C285   1.399       .  A
C284        H289   1.080       .  S
C285        C286   1.410       .  A
C286        C287   1.508       .  S
C287        H291   1.111       .  S
C287        H292   1.111       .  S
C287        H293   1.110       .  S
C290        H294   1.110       .  S
C290        H295   1.109       .  S
C290        H296   1.111       .  S
C297        C298   1.400       .  A
C297        C302   1.403       .  A
C297        H824   1.085       .  S
C298        C711   1.474       .  S
C298        C299   1.412       .  A
C299        C300   1.401       .  A
C299        C306   1.506       .  S
C300        C301   1.406       .  A
C300        H305   1.084       .  S
C301        C302   1.422       .  A
C302        C303   1.508       .  S
C303        H308   1.111       .  S
C303        H309   1.110       .  S
C303        H827   1.110       .  S
H304        C817   1.085       .  S
C306        H310   1.109       .  S
C306        H311   1.109       .  S
C306        H312   1.111       .  S
H307        C823   1.110       .  S
C313        C314   1.403       .  A
C313        C318   1.401       .  A
C313        H840   1.085       .  S
C314        C705   1.476       .  S
C314        C315   1.415       .  A
C315        C316   1.403       .  A
C315        C322   1.507       .  S
C316        C317   1.402       .  A
C316        H321   1.085       .  S
C317        C318   1.414       .  A
C318        C319   1.508       .  S
C319        H324   1.111       .  S
C319        H325   1.107       .  S
C319        H843   1.111       .  S
H320        C833   1.085   1_545  S
C322        H326   1.107       .  S
C322        H327   1.109       .  S
C322        H328   1.111       .  S
H323        C839   1.111       .  S
C329        C330   1.401       .  A
C329        C334   1.403       .  A
C329        H336   1.083       .  S
C330        C331   1.412       .  A
C331        C332   1.403       .  A
C331        C338   1.508       .  S
C332        C333   1.403       .  A
C332        H337   1.084       .  S
C333        C334   1.414       .  A
C334        C335   1.508       .  S
C335        H339   1.111       .  S
C335        H340   1.109       .  S
C335        H341   1.110       .  S
C338        H342   1.109       .  S
C338        H343   1.110       .  S
C338        H344   1.111       .  S
C345        C346   1.402       .  A
C345        C350   1.401       .  A
C345        H352   1.084       .  S
C346        C347   1.413       .  A
C347        C348   1.404       .  A
C347        C354   1.506       .  S
C348        C349   1.401       .  A
C348        H353   1.084       .  S
C349        C350   1.411       .  A
C350        C351   1.506       .  S
C351        H355   1.111       .  S
C351        H356   1.110       .  S
C351        H357   1.110       .  S
C354        H358   1.110       .  S
C354        H359   1.109       .  S
C354        H360   1.109       .  S
C361        C362   1.404       .  A
C361        C366   1.403       .  A
C361        H888   1.085       .  S
C362        C687   1.480       .  S
C362        C363   1.417       .  A
C363        C364   1.401       .  A
C363        C370   1.510       .  S
C364        C365   1.404       .  A
C364        H369   1.084       .  S
C365        C366   1.418       .  A
C366        C367   1.508       .  S
C367        H372   1.111       .  S
C367        H373   1.110       .  S
C367        H891   1.111       .  S
H368        C881   1.085       .  S
C370        H374   1.110       .  S
C370        H375   1.110       .  S
C370        H376   1.111   1_554  S
H371        C887   1.111       .  S
C377        C378   1.401       .  A
C377        C382   1.402       .  A
C377        H384   1.085       .  S
C378        C379   1.417       .  A
C379        C380   1.403       .  A
C379        C386   1.509       .  S
C380        C381   1.405       .  A
C380        H385   1.085       .  S
C381        C681   1.489       .  S
C381        C382   1.422       .  A
C382        C903   1.510       .  S
C383        C902   1.510   1_545  S
C383        H387   1.111       .  S
C383        H388   1.109       .  S
C383        H389   1.109       .  S
C386        H390   1.105       .  S
C386        H391   1.111       .  S
C386        H392   1.111   1_554  S
C393        C394   1.403       .  A
C393        C398   1.404       .  A
C393        H400   1.084       .  S
C394        C661   1.480   1_545  S
C394        C395   1.416       .  A
C395        C396   1.401       .  A
C395        C922   1.507       .  S
C396        C397   1.404       .  A
C396        H401   1.084       .  S
C397        C398   1.418       .  A
C398        C399   1.508       .  S
C399        H403   1.111   1_556  S
C399        H404   1.111       .  S
C399        H405   1.110   1_556  S
C402        C915   1.507       .  S
C402        H406   1.106       .  S
C402        H407   1.109       .  S
C402        H408   1.111       .  S
C409        C410   1.403       .  A
C409        C414   1.404       .  A
C409        H936   1.085       .  S
C410        C655   1.473   1_545  S
C410        C411   1.412       .  A
C411        C412   1.399       .  A
C411        C418   1.510       .  S
C412        C413   1.407       .  A
C412        H417   1.084       .  S
C413        C414   1.418       .  A
C414        C415   1.508       .  S
C415        H420   1.110   1_556  S
C415        H421   1.110       .  S
C415        H939   1.111   1_556  S
H416        C929   1.085       .  S
C418        H422   1.109   1_545  S
C418        H423   1.109       .  S
C418        H424   1.111       .  S
H419        C935   1.111   1_554  S
C425        C426   1.399       .  A
C425        C430   1.401       .  A
C425        H432   1.085       .  S
C426        C427   1.409       .  A
C427        C428   1.401       .  A
C427        C434   1.508       .  S
C428        C429   1.404       .  A
C428        H433   1.084       .  S
C429        C430   1.416       .  A
C430        C431   1.509       .  S
C431        H435   1.111       .  S
C431        H436   1.109       .  S
C431        H437   1.110       .  S
C434        H438   1.110       .  S
C434        H439   1.111       .  S
C434        H440   1.111       .  S
C441        C442   1.402       .  A
C441        C446   1.402       .  A
C441        H448   1.085       .  S
C442        C443   1.414       .  A
C443        C444   1.402       .  A
C443        C450   1.508       .  S
C444        C445   1.405       .  A
C444        H449   1.084       .  S
C445        C446   1.419       .  A
C446        C447   1.509       .  S
C447        H451   1.111       .  S
C447        H452   1.109       .  S
C447        H453   1.111       .  S
C450        H454   1.109       .  S
C450        H455   1.110   1_556  S
C450        H456   1.111   1_556  S
C457        C458   1.399       .  A
C457        C462   1.401       .  A
C457        H464   1.085       .  S
C458        C459   1.412       .  A
C459        C460   1.402       .  A
C459        C466   1.508       .  S
C460        C461   1.408       .  A
C460        H985   1.084       .  S
C461        C595   1.489   1_545  S
C461        C462   1.425       .  A
C462        C463   1.512   1_545  S
C463        H467   1.111       .  S
C463        H468   1.107       .  S
C463        H469   1.110       .  S
H465        C980   1.084       .  S
C466        H470   1.110       .  S
C466        H471   1.110       .  S
C466        H992   1.111       .  S
H472        C986   1.111       .  S
C473        C474   1.404       .  A
C473        C478   1.400       .  A
C473        H480   1.084   1_545  S
C474        C589   1.481   1_545  S
C474        C475   1.417       .  A
C475        C476   1.404       .  A
C475        C482   1.508       .  S
C476        C477   1.404       .  A
C476        H481   1.084       .  S
C477        C478   1.417       .  A
C478        C479   1.509       .  S
C479        H483   1.111       .  S
C479        H484   1.109       .  S
C479        H485   1.111       .  S
C482        H486   1.109       .  S
C482        H488   1.111       .  S
C482       H1007   1.109       .  S
H487       C1002   1.109       .  S
C489        C490   1.401       .  A
C489        C494   1.402       .  A
C489        H496   1.085       .  S
C490        C491   1.413       .  A
C491        C492   1.404       .  A
C491        C498   1.507       .  S
C492        C493   1.403       .  A
C492        H497   1.084       .  S
C493        C494   1.414       .  A
C494        C495   1.508       .  S
C495        H499   1.109       .  S
C495        H500   1.109       .  S
C495        H501   1.110       .  S
C498        H502   1.110       .  S
C498        H503   1.111       .  S
C498        H504   1.111       .  S
C505        C506   1.402       .  A
C505        C510   1.403       .  A
C505        H512   1.085       .  S
C506        C507   1.414       .  A
C507        C508   1.401       .  A
C507        C514   1.508       .  S
C508        C509   1.401       .  A
C508        H513   1.085       .  S
C509        C510   1.413       .  A
C510        C511   1.508       .  S
C511        H515   1.111       .  S
C511        H516   1.110       .  S
C511        H517   1.109       .  S
C514        H518   1.110       .  S
C514        H519   1.109       .  S
C514        H520   1.111       .  S
O521        V529   1.905       .  S
O521        C531   1.267       .  A
O522        V529   1.901       .  S
O522        C532   1.262       .  A
O523        V529   1.898       .  S
O523        C533   1.261       .  A
O524        V529   1.899       .  S
O524        C534   1.265       .  A
O525        V530   1.897       .  S
O525        C534   1.261       .  A
O526        V530   1.897       .  S
O526        C533   1.265       .  A
O527        V530   1.898       .  S
O527        C532   1.265       .  A
O528        V530   1.900       .  S
O528        C531   1.262       .  A
V529        V530   2.090       .  T
C531        C663   1.467       .  S
C532        C567   1.463       .  S
C533        C599   1.460       .  S
C534        C619   1.461       .  S
O535        V543   1.899       .  S
O535        C545   1.262       .  A
O536        V543   1.900       .  S
O536        C546   1.266       .  A
O537        V543   1.900       .  S
O537        C547   1.266       .  A
O538        V543   1.901       .  S
O538        C548   1.262       .  A
O539        V544   1.902       .  S
O539        C548   1.266       .  A
O540        V544   1.900       .  S
O540        C547   1.262       .  A
O541        V544   1.897       .  S
O541        C546   1.261       .  A
O542        V544   1.900       .  S
O542        C545   1.265       .  A
V543        V544   2.089       .  T
C545        C593   1.464       .  S
C546        C625   1.462       .  S
C547        C659   1.463       .  S
C548        C573   1.466       .  S
O549       V1597   1.897       .  S
O549        C559   1.262       .  A
O550        V557   1.900   1_455  S
O550        C560   1.265       .  A
O551       V1597   1.904       .  S
O551        C561   1.266       .  A
O552        V557   1.900   1_455  S
O552        C562   1.263       .  A
O553        V558   1.906   1_455  S
O553        C562   1.266       .  A
O554       V1598   1.902       .  S
O554        C561   1.263       .  A
O555        V558   1.901   1_455  S
O555        C560   1.262       .  A
O556       V1598   1.904       .  S
O556        C559   1.266       .  A
V557       O1589   1.897       .  S
V557       O1591   1.904       .  S
V557        V558   2.089       .  T
V558       O1594   1.902       .  S
V558       O1596   1.904       .  S
C559        C565   1.465       .  S
C560        C725   1.465       .  S
C561        C719   1.468       .  S
C562        C571   1.469       .  S
C563       C1026   1.471       .  S
C563        N564   1.355       .  A
C563        N568   1.353       .  A
N564        C565   1.357       .  A
C565        N566   1.363       .  A
N566        C567   1.362       .  A
C567        N568   1.355       .  A
C569       C1013   1.474       .  S
C569        N570   1.357       .  A
C569        N574   1.353       .  A
N570        C571   1.360       .  A
C571        N572   1.364       .  A
N572        C573   1.363       .  A
C573        N574   1.354       .  A
O575       V1623   1.905       .  S
O576        V583   1.901       .  S
O576        C586   1.262       .  A
O577       V1623   1.899       .  S
O577        C587   1.262       .  A
O578        V583   1.902       .  S
O579        V584   1.897       .  S
O579        C588   1.261       .  A
O580       V1624   1.898       .  S
O581        V584   1.903       .  S
O582       V1624   1.900       .  S
O582        C585   1.263       .  A
V583       O1615   1.905   1_455  S
V583       O1617   1.899   1_455  S
V584       O1620   1.898   1_455  S
V584       O1622   1.900   1_455  S
C585        C597   1.468       .  S
C586        C707   1.467       .  S
C587        C715   1.462       .  S
C588        C591   1.463       .  S
C589        N590   1.354       .  A
C589        N594   1.355       .  A
N590        C591   1.356       .  A
C591        N592   1.362       .  A
N592        C593   1.362       .  A
C593        N594   1.356       .  A
C595        N596   1.359       .  A
C595        N600   1.349       .  A
N596        C597   1.360       .  A
C597        N598   1.364       .  A
N598        C599   1.361       .  A
C599        N600   1.351       .  A
O601        V609   1.903       .  S
O601        C611   1.266       .  A
O602        V609   1.898   1_556  S
O602        C612   1.262       .  A
O603        V609   1.898   1_556  S
O603        C613   1.262       .  A
O604        V609   1.902       .  S
O604        C614   1.266       .  A
O605        V610   1.897   1_554  S
O605        C614   1.262       .  A
O606        V610   1.900       .  S
O606        C613   1.265       .  A
O607        V610   1.901       .  S
O607        C612   1.265       .  A
O608        V610   1.898   1_554  S
O608        C611   1.262       .  A
V609        V610   2.090   1_554  T
C611        C703   1.465       .  S
C612        C617   1.462       .  S
C613        C623   1.463       .  S
C614        C697   1.464       .  S
C615        C962   1.478       .  S
C615        N616   1.354       .  A
C615        N620   1.354       .  A
N616        C617   1.356       .  A
C617        N618   1.362       .  A
N618        C619   1.361       .  A
C619        N620   1.356       .  A
C621        C949   1.474       .  S
C621        N622   1.354       .  A
C621        N626   1.353       .  A
N622        C623   1.356       .  A
C623        N624   1.362       .  A
N624        C625   1.362       .  A
C625        N626   1.355       .  A
O627        V635   1.903       .  S
O627        C637   1.263       .  A
O628        V635   1.903       .  S
O628        C638   1.266       .  A
O629        V635   1.900       .  S
O629        C639   1.265       .  A
O630        V635   1.898       .  S
O630        C640   1.262       .  A
O631        V636   1.902       .  S
O631        C640   1.266       .  A
O632        V636   1.898       .  S
O632        C639   1.262       .  A
O633        V636   1.897       .  S
O633        C638   1.261       .  A
O634        V636   1.901       .  S
O634        C637   1.266       .  A
V635        V636   2.089       .  T
C637        C721   1.468       .  S
C638        C689   1.463       .  S
C639        C695   1.461       .  S
C640        C713   1.464       .  S
O641        V649   1.895   1_556  S
O641        C651   1.260       .  A
O642        V649   1.898       .  S
O643        V649   1.908       .  S
O644        V649   1.905   1_556  S
O644        C654   1.263       .  A
O645        V650   1.905       .  S
O646        V650   1.902   1_554  S
O646        C653   1.263       .  A
O647        V650   1.899   1_554  S
O647        C652   1.262       .  A
O648        V650   1.901       .  S
C651        C657   1.460       .  S
C652        C691   1.462       .  S
C653        C685   1.471       .  S
C654        C665   1.470       .  S
C655        N656   1.353   1_565  A
C655        N660   1.353       .  A
N656        C657   1.355   1_545  A
C657        N658   1.363       .  A
N658        C659   1.363       .  A
C659        N660   1.355       .  A
C661        N662   1.354       .  A
C661        N666   1.357   1_565  A
N662        C663   1.355       .  A
C663        N664   1.364       .  A
N664        C665   1.364       .  A
C665        N666   1.358   1_565  A
O667        V675   1.901       .  S
O667        C677   1.265       .  A
O668        V675   1.901       .  S
O668        C678   1.262       .  A
O669        V675   1.898       .  S
O669        C679   1.262       .  A
O670        V675   1.899       .  S
O670        C680   1.266       .  A
O671        V676   1.903       .  S
O671        C680   1.262       .  A
O672        V676   1.905       .  S
O672        C679   1.266       .  A
O673        V676   1.905       .  S
O673        C678   1.266       .  A
O674        V676   1.900       .  S
O674        C677   1.262       .  A
V675        V676   2.089       .  T
C677        C701   1.465       .  S
C678        C709   1.468       .  S
C679        C727   1.466       .  S
C680        C683   1.465       .  S
C681        N682   1.351       .  A
C681        N686   1.359       .  A
N682        C683   1.353       .  A
C683        N684   1.362       .  A
N684        C685   1.365       .  A
C685        N686   1.360       .  A
C687        N688   1.355       .  A
C687        N692   1.352       .  A
N688        C689   1.357       .  A
C689        N690   1.363       .  A
N690        C691   1.362       .  A
C691        N692   1.354       .  A
C693        C866   1.472       .  S
C693        N694   1.353       .  A
C693        N698   1.355       .  A
N694        C695   1.355       .  A
C695        N696   1.361       .  A
N696        C697   1.362       .  A
C697        N698   1.357       .  A
C699        C853   1.474       .  S
C699        N700   1.354       .  A
C699        N704   1.355       .  A
N700        C701   1.356       .  A
C701        N702   1.362       .  A
N702        C703   1.363       .  A
C703        N704   1.358       .  A
C705        N706   1.354       .  A
C705        N710   1.356       .  A
N706        C707   1.357       .  A
C707        N708   1.363       .  A
N708        C709   1.363       .  A
C709        N710   1.357       .  A
C711        N712   1.355       .  A
C711        N716   1.353       .  A
N712        C713   1.358       .  A
C713        N714   1.362       .  A
N714        C715   1.362       .  A
C715        N716   1.355       .  A
C717        C802   1.478       .  S
C717        N718   1.355       .  A
C717        N722   1.354       .  A
N718        C719   1.358       .  A
C719        N720   1.364       .  A
N720        C721   1.363       .  A
C721        N722   1.356       .  A
C723        C786   1.474       .  S
C723        N724   1.353       .  A
C723        N728   1.355       .  A
N724        C725   1.356       .  A
C725        N726   1.363       .  A
N726        C727   1.364       .  A
C727        N728   1.357       .  A
O729       V1777   1.898       .  S
O729        C739   1.263       .  A
O730        V737   1.897   1_455  S
O730        C740   1.264       .  A
O731        V737   1.897   1_455  S
O731        C741   1.264       .  A
O732       V1777   1.902       .  S
O732        C742   1.264       .  A
O733       V1778   1.893       .  S
O733        C742   1.262       .  A
O734        V738   1.898   1_455  S
O734        C741   1.264       .  A
O735        V738   1.897   1_455  S
O735        C740   1.263       .  A
O736       V1778   1.897       .  S
O736        C739   1.265       .  A
V737       O1769   1.898       .  S
V737       O1772   1.902       .  S
V737        V738   2.088       .  T
V738       O1773   1.893       .  S
V738       O1776   1.897       .  S
C739        C885   1.483       .  S
C740        C850   1.470       .  S
C741        C898   1.477       .  S
C742        C869   1.469       .  S
O743        V751   1.902       .  S
O743        C753   1.265       .  A
O744        V751   1.901       .  S
O744        C754   1.267       .  A
O745        V751   1.898       .  S
O745        C755   1.263       .  A
O746        V751   1.899       .  S
O746        C756   1.262       .  A
O747        V752   1.899       .  S
O747        C756   1.264       .  A
O748        V752   1.898       .  S
O748        C755   1.263       .  A
O749        V752   1.892       .  S
O749        C754   1.261       .  A
O750        V752   1.893       .  S
O750        C753   1.261       .  A
V751        V752   2.088       .  T
C753        C789   1.467       .  S
C754        C821   1.486       .  S
C755        C837   1.470       .  S
C756        C805   1.470       .  S
O757        V765   1.896       .  S
O757        C767   1.263       .  A
O758        V765   1.901       .  S
O758        C768   1.265       .  A
O759        V765   1.895       .  S
O759        C769   1.263       .  A
O760        V765   1.897       .  S
O760        C770   1.263       .  A
O761        V766   1.894       .  S
O761        C770   1.264       .  A
O762        V766   1.900       .  S
O762        C769   1.264       .  A
O763        V766   1.891       .  S
O763        C768   1.262       .  A
O764        V766   1.897       .  S
O764        C767   1.263       .  A
V765        V766   2.088       .  T
C767       C1029   1.469       .  S
C768        C997   1.480       .  S
C769       C1010   1.472       .  S
C770        C978   1.474       .  S
O771       V1819   1.892       .  S
O771        C781   1.262       .  A
O772        V779   1.887       .  S
O772        C782   1.263       .  A
O773       V1819   1.895       .  S
O773        C783   1.265       .  A
O774        V779   1.894       .  S
O774        C784   1.262       .  A
O775        V780   1.896       .  S
O775        C784   1.262       .  A
O776       V1820   1.897       .  S
O776        C783   1.263       .  A
O777        V780   1.903       .  S
O777        C782   1.265       .  A
O778       V1820   1.900       .  S
O778        C781   1.266       .  A
V779       O1811   1.892   1_455  S
V779       O1813   1.895   1_455  S
V779        V780   2.085       .  T
V780       O1816   1.897   1_455  S
V780       O1818   1.900   1_455  S
C781        C965   1.483       .  S
C782        C933   1.484       .  S
C783        C917   1.482       .  S
C784        C946   1.463       .  S
C785        C786   1.402       .  A
C785        C790   1.401       .  A
C785        H792   1.084       .  S
C786        C787   1.416       .  A
C787        C788   1.404       .  A
C787        C794   1.508       .  S
C788        C789   1.400       .  A
C788        H793   1.085       .  S
C789        C790   1.409       .  A
C790        C791   1.504       .  S
C791        H795   1.111       .  S
C791        H796   1.110       .  S
C791        H797   1.109       .  S
C794        H798   1.109       .  S
C794        H799   1.111       .  S
C794        H800   1.110       .  S
C801        C802   1.405       .  A
C801        C806   1.404       .  A
C801        H808   1.083       .  S
C802        C803   1.416       .  A
C803        C804   1.403       .  A
C803        C810   1.509       .  S
C804        C805   1.399       .  A
C804        H809   1.080       .  S
C805        C806   1.410       .  A
C806        C807   1.508       .  S
C807        H811   1.111       .  S
C807        H812   1.111       .  S
C807        H813   1.110       .  S
C810        H814   1.110       .  S
C810        H815   1.109       .  S
C810        H816   1.111       .  S
C817        C818   1.400       .  A
C817        C822   1.403       .  A
C818        C819   1.412       .  A
C819        C820   1.401       .  A
C819        C826   1.506       .  S
C820        C821   1.406       .  A
C820        H825   1.084       .  S
C821        C822   1.422       .  A
C822        C823   1.508       .  S
C823        H828   1.111       .  S
C823        H829   1.110       .  S
C826        H830   1.109       .  S
C826        H831   1.109       .  S
C826        H832   1.111       .  S
C833        C834   1.403       .  A
C833        C838   1.401       .  A
C834        C835   1.415       .  A
C835        C836   1.403       .  A
C835        C842   1.507       .  S
C836        C837   1.402       .  A
C836        H841   1.085       .  S
C837        C838   1.414       .  A
C838        C839   1.508       .  S
C839        H844   1.111       .  S
C839        H845   1.107       .  S
C842        H846   1.107       .  S
C842        H847   1.109       .  S
C842        H848   1.111       .  S
C849        C850   1.401       .  A
C849        C854   1.403       .  A
C849        H856   1.083       .  S
C850        C851   1.412       .  A
C851        C852   1.403       .  A
C851        C858   1.508       .  S
C852        C853   1.403       .  A
C852        H857   1.084       .  S
C853        C854   1.414       .  A
C854        C855   1.508       .  S
C855        H859   1.111       .  S
C855        H860   1.109       .  S
C855        H861   1.110       .  S
C858        H862   1.109       .  S
C858        H863   1.110       .  S
C858        H864   1.111       .  S
C865        C866   1.402       .  A
C865        C870   1.401       .  A
C865        H872   1.084       .  S
C866        C867   1.413       .  A
C867        C868   1.404       .  A
C867        C874   1.506       .  S
C868        C869   1.401       .  A
C868        H873   1.084       .  S
C869        C870   1.411       .  A
C870        C871   1.506       .  S
C871        H875   1.111       .  S
C871        H876   1.110       .  S
C871        H877   1.110       .  S
C874        H878   1.110       .  S
C874        H879   1.109       .  S
C874        H880   1.109       .  S
C881        C882   1.404       .  A
C881        C886   1.403       .  A
C882        C883   1.417       .  A
C883        C884   1.401       .  A
C883        C890   1.510       .  S
C884        C885   1.404       .  A
C884        H889   1.084       .  S
C885        C886   1.418       .  A
C886        C887   1.508       .  S
C887        H892   1.111       .  S
C887        H893   1.110       .  S
C890        H894   1.110       .  S
C890        H895   1.110       .  S
C890        H896   1.111   1_554  S
C897        C898   1.401       .  A
C897        C902   1.402       .  A
C897        H904   1.085       .  S
C898        C899   1.417       .  A
C899        C900   1.403       .  A
C899        C906   1.509       .  S
C900        C901   1.405       .  A
C900        H905   1.085       .  S
C901        C902   1.422       .  A
C903        H907   1.111       .  S
C903        H908   1.109       .  S
C903        H909   1.109       .  S
C906        H910   1.105       .  S
C906        H911   1.111       .  S
C906        H912   1.111   1_554  S
C913        C914   1.403       .  A
C913        C918   1.404       .  A
C913        H920   1.084       .  S
C914        C915   1.416       .  A
C915        C916   1.401       .  A
C916        C917   1.404       .  A
C916        H921   1.084       .  S
C917        C918   1.418       .  A
C918        C919   1.508       .  S
C919        H923   1.111   1_556  S
C919        H924   1.111       .  S
C919        H925   1.110   1_556  S
C922        H926   1.106       .  S
C922        H927   1.109   1_545  S
C922        H928   1.111       .  S
C929        C930   1.403       .  A
C929        C934   1.404       .  A
C930        C931   1.412       .  A
C931        C932   1.399       .  A
C931        C938   1.510       .  S
C932        C933   1.407       .  A
C932        H937   1.084       .  S
C933        C934   1.418       .  A
C934        C935   1.508       .  S
C935        H940   1.110   1_556  S
C935        H941   1.110       .  S
C938        H942   1.109       .  S
C938        H943   1.109       .  S
C938        H944   1.111       .  S
C945        C946   1.399       .  A
C945        C950   1.401       .  A
C945        H952   1.085       .  S
C946        C947   1.409       .  A
C947        C948   1.401       .  A
C947        C954   1.508       .  S
C948        C949   1.404       .  A
C948        H953   1.084       .  S
C949        C950   1.416       .  A
C950        C951   1.509       .  S
C951        H955   1.111       .  S
C951        H956   1.109       .  S
C951        H957   1.110       .  S
C954        H958   1.110       .  S
C954        H959   1.111       .  S
C954        H960   1.111       .  S
C961        C962   1.402       .  A
C961        C966   1.402       .  A
C961        H968   1.085       .  S
C962        C963   1.414       .  A
C963        C964   1.402       .  A
C963        C970   1.508       .  S
C964        C965   1.405       .  A
C964        H969   1.084       .  S
C965        C966   1.419       .  A
C966        C967   1.509       .  S
C967        H971   1.111       .  S
C967        H972   1.109       .  S
C967        H973   1.111       .  S
C970        H974   1.109       .  S
C970        H975   1.110   1_556  S
C970        H976   1.111   1_556  S
C977        C978   1.399       .  A
C977        C982   1.401       .  A
C977        H984   1.085       .  S
C978        C979   1.412       .  A
C979        C980   1.402       .  A
C979        C986   1.508       .  S
C980        C981   1.408       .  A
C981        C982   1.425       .  A
C982        C983   1.512       .  S
C983        H987   1.111       .  S
C983        H988   1.107       .  S
C983        H989   1.110       .  S
C986        H990   1.110       .  S
C986        H991   1.110       .  S
C993        C994   1.404       .  A
C993        C998   1.400       .  A
C993       H1000   1.084       .  S
C994        C995   1.417       .  A
C995        C996   1.404       .  A
C995       C1002   1.508       .  S
C996        C997   1.404       .  A
C996       H1001   1.084       .  S
C997        C998   1.417       .  A
C998        C999   1.509       .  S
C999       H1003   1.111       .  S
C999       H1004   1.109       .  S
C999       H1005   1.111       .  S
C1002      H1006   1.109       .  S
C1002      H1008   1.111       .  S
C1009      C1010   1.401       .  A
C1009      C1014   1.402       .  A
C1009      H1016   1.085       .  S
C1010      C1011   1.413       .  A
C1011      C1012   1.404       .  A
C1011      C1018   1.507       .  S
C1012      C1013   1.403       .  A
C1012      H1017   1.084       .  S
C1013      C1014   1.414       .  A
C1014      C1015   1.508       .  S
C1015      H1019   1.109       .  S
C1015      H1020   1.109       .  S
C1015      H1021   1.110       .  S
C1018      H1022   1.110       .  S
C1018      H1023   1.111       .  S
C1018      H1024   1.111       .  S
C1025      C1026   1.402       .  A
C1025      C1030   1.403       .  A
C1025      H1032   1.085       .  S
C1026      C1027   1.414       .  A
C1027      C1028   1.401       .  A
C1027      C1034   1.508       .  S
C1028      C1029   1.401       .  A
C1028      H1033   1.085       .  S
C1029      C1030   1.413       .  A
C1030      C1031   1.508       .  S
C1031      H1035   1.111       .  S
C1031      H1036   1.110       .  S
C1031      H1037   1.109       .  S
C1034      H1038   1.110       .  S
C1034      H1039   1.109       .  S
C1034      H1040   1.111       .  S
O1041      V1049   1.905       .  S
O1041      C1051   1.267       .  A
O1042      V1049   1.901       .  S
O1042      C1052   1.262       .  A
O1043      V1049   1.898       .  S
O1043      C1053   1.261       .  A
O1044      V1049   1.899       .  S
O1044      C1054   1.265       .  A
O1045      V1050   1.897       .  S
O1045      C1054   1.261       .  A
O1046      V1050   1.897       .  S
O1046      C1053   1.265       .  A
O1047      V1050   1.898       .  S
O1047      C1052   1.265       .  A
O1048      V1050   1.900       .  S
O1048      C1051   1.262       .  A
V1049      V1050   2.090       .  T
C1051      C1183   1.467       .  S
C1052      C1087   1.463       .  S
C1053      C1119   1.460       .  S
C1054      C1139   1.461       .  S
O1055      V1063   1.899       .  S
O1055      C1065   1.262       .  A
O1056      V1063   1.900       .  S
O1056      C1066   1.266       .  A
O1057      V1063   1.900       .  S
O1057      C1067   1.266       .  A
O1058      V1063   1.901       .  S
O1058      C1068   1.262       .  A
O1059      V1064   1.902       .  S
O1059      C1068   1.266       .  A
O1060      V1064   1.900       .  S
O1060      C1067   1.262       .  A
O1061      V1064   1.897       .  S
O1061      C1066   1.261       .  A
O1062      V1064   1.900       .  S
O1062      C1065   1.265       .  A
V1063      V1064   2.089       .  T
C1065      C1113   1.464       .  S
C1066      C1145   1.462       .  S
C1067      C1179   1.463       .  S
C1068      C1093   1.466       .  S
O1069      C1079   1.262       .  A
O1070      V1077   1.900       .  S
O1070      C1080   1.265       .  A
O1071      C1081   1.266       .  A
O1072      V1077   1.900       .  S
O1072      C1082   1.263       .  A
O1073      V1078   1.906       .  S
O1073      C1082   1.266       .  A
O1074      C1081   1.263       .  A
O1075      V1078   1.901       .  S
O1075      C1080   1.262       .  A
O1076      C1079   1.266       .  A
V1077      V1078   2.089       .  T
C1079      C1085   1.465       .  S
C1080      C1245   1.465       .  S
C1081      C1239   1.468       .  S
C1082      C1091   1.469       .  S
C1083      C1546   1.471       .  S
C1083      N1084   1.355       .  A
C1083      N1088   1.353       .  A
N1084      C1085   1.357       .  A
C1085      N1086   1.363       .  A
N1086      C1087   1.362       .  A
C1087      N1088   1.355       .  A
C1089      C1533   1.474       .  S
C1089      N1090   1.357       .  A
C1089      N1094   1.353       .  A
N1090      C1091   1.360       .  A
C1091      N1092   1.364       .  A
N1092      C1093   1.363       .  A
C1093      N1094   1.354       .  A
O1095      C1625   1.266   1_545  A
O1096      V1103   1.901       .  S
O1096      C1106   1.262       .  A
O1097      C1107   1.262       .  A
O1098      V1103   1.902       .  S
O1098      C1628   1.266   1_545  A
O1099      V1104   1.897       .  S
O1099      C1108   1.261       .  A
O1100      C1627   1.265       .  A
O1101      V1104   1.903       .  S
O1101      C1626   1.266       .  A
O1102      C1105   1.263       .  A
V1103      V1624   2.089   1_545  T
V1104      V1623   2.089       .  T
C1105      O1615   1.266       .  A
C1105      C1117   1.468       .  S
C1106      O1621   1.266   1_545  A
C1106      C1227   1.467       .  S
C1107      O1620   1.265   1_545  A
C1107      C1235   1.462       .  S
C1108      O1618   1.266       .  A
C1108      C1111   1.463       .  S
C1109      C2034   1.481       .  S
C1109      N1110   1.354       .  A
C1109      N1114   1.355       .  A
N1110      C1111   1.356       .  A
C1111      N1112   1.362       .  A
N1112      C1113   1.362       .  A
C1113      N1114   1.356       .  A
C1115      C2021   1.489       .  S
C1115      N1116   1.359       .  A
C1115      N1120   1.349       .  A
N1116      C1117   1.360       .  A
C1117      N1118   1.364       .  A
N1118      C1119   1.361       .  A
C1119      N1120   1.351       .  A
O1121      V1129   1.902       .  S
O1121      C1131   1.266       .  A
O1122      V1129   1.898   1_556  S
O1122      C1132   1.262       .  A
O1123      V1129   1.898   1_556  S
O1123      C1133   1.262       .  A
O1124      V1129   1.902       .  S
O1124      C1134   1.266       .  A
O1125      V1130   1.897   1_554  S
O1125      C1134   1.262       .  A
O1126      V1130   1.900       .  S
O1126      C1133   1.265       .  A
O1127      V1130   1.901       .  S
O1127      C1132   1.265       .  A
O1128      V1130   1.898   1_554  S
O1128      C1131   1.262       .  A
V1129      V1130   2.090   1_554  T
C1131      C1223   1.465       .  S
C1132      C1137   1.462       .  S
C1133      C1143   1.463       .  S
C1134      C1217   1.464       .  S
C1135      C1482   1.478       .  S
C1135      N1136   1.354       .  A
C1135      N1140   1.354       .  A
N1136      C1137   1.356       .  A
C1137      N1138   1.362       .  A
N1138      C1139   1.361       .  A
C1139      N1140   1.356       .  A
C1141      C1469   1.474       .  S
C1141      N1142   1.354       .  A
C1141      N1146   1.353       .  A
N1142      C1143   1.356       .  A
C1143      N1144   1.362       .  A
N1144      C1145   1.362       .  A
C1145      N1146   1.355       .  A
O1147      V1155   1.903       .  S
O1147      C1157   1.263       .  A
O1148      V1155   1.903       .  S
O1148      C1158   1.266       .  A
O1149      V1155   1.900       .  S
O1149      C1159   1.265       .  A
O1150      V1155   1.898       .  S
O1150      C1160   1.262       .  A
O1151      V1156   1.902       .  S
O1151      C1160   1.266       .  A
O1152      V1156   1.898       .  S
O1152      C1159   1.262       .  A
O1153      V1156   1.897       .  S
O1153      C1158   1.261       .  A
O1154      V1156   1.901       .  S
O1154      C1157   1.266       .  A
V1155      V1156   2.089       .  T
C1157      C1241   1.468       .  S
C1158      C1209   1.463       .  S
C1159      C1215   1.461       .  S
C1160      C1233   1.464       .  S
O1161      V1169   1.895   1_556  S
O1161      C1171   1.260       .  A
O1162      V1169   1.898       .  S
O1162      C1692   1.265       .  A
O1163      V1169   1.908       .  S
O1163      C1693   1.267       .  A
O1164      V1169   1.905   1_556  S
O1164      C1174   1.263       .  A
O1165      V1170   1.905       .  S
O1165      C1694   1.266   1_545  A
O1166      V1170   1.902   1_554  S
O1166      C1173   1.263       .  A
O1167      V1170   1.899   1_554  S
O1167      C1172   1.262       .  A
O1168      V1170   1.901       .  S
O1168      C1691   1.266   1_545  A
V1169      V1690   2.089   1_554  T
V1170      V1689   2.089   1_546  T
C1171      O1688   1.266       .  A
C1171      C1177   1.460       .  S
C1172      O1682   1.265   1_545  A
C1172      C1211   1.462       .  S
C1173      O1683   1.267   1_545  A
C1173      C1205   1.471       .  S
C1174      O1685   1.266       .  A
C1174      C1185   1.470       .  S
C1175      C1970   1.473       .  S
C1175      N1176   1.353       .  A
C1175      N1180   1.353       .  A
N1176      C1177   1.355       .  A
C1177      N1178   1.363       .  A
N1178      C1179   1.363       .  A
C1179      N1180   1.355       .  A
C1181      C1954   1.480       .  S
C1181      N1182   1.354       .  A
C1181      N1186   1.357       .  A
N1182      C1183   1.355       .  A
C1183      N1184   1.364       .  A
N1184      C1185   1.364       .  A
C1185      N1186   1.358       .  A
O1187      V1195   1.901       .  S
O1187      C1197   1.265       .  A
O1188      V1195   1.901       .  S
O1188      C1198   1.262       .  A
O1189      V1195   1.898       .  S
O1189      C1199   1.262       .  A
O1190      V1195   1.899       .  S
O1190      C1200   1.266       .  A
O1191      V1196   1.903       .  S
O1191      C1200   1.262       .  A
O1192      V1196   1.905       .  S
O1192      C1199   1.266       .  A
O1193      V1196   1.905       .  S
O1193      C1198   1.266       .  A
O1194      V1196   1.900       .  S
O1194      C1197   1.262       .  A
V1195      V1196   2.089       .  T
C1197      C1221   1.465       .  S
C1198      C1229   1.468       .  S
C1199      C1247   1.466       .  S
C1200      C1203   1.465       .  S
C1201      C1941   1.489   1_545  S
C1201      N1202   1.351       .  A
C1201      N1206   1.359       .  A
N1202      C1203   1.353       .  A
C1203      N1204   1.362       .  A
N1204      C1205   1.365       .  A
C1205      N1206   1.360       .  A
C1207      C1922   1.480   1_545  S
C1207      N1208   1.355       .  A
C1207      N1212   1.352   1_545  A
N1208      C1209   1.357       .  A
C1209      N1210   1.363       .  A
N1210      C1211   1.362       .  A
C1211      N1212   1.354   1_545  A
C1213      C1386   1.472       .  S
C1213      N1214   1.353       .  A
C1213      N1218   1.355       .  A
N1214      C1215   1.355       .  A
C1215      N1216   1.361       .  A
N1216      C1217   1.362       .  A
C1217      N1218   1.357       .  A
C1219      C1373   1.474       .  S
C1219      N1220   1.354       .  A
C1219      N1224   1.355       .  A
N1220      C1221   1.356       .  A
C1221      N1222   1.362       .  A
N1222      C1223   1.362       .  A
C1223      N1224   1.358       .  A
C1225      C1874   1.476   1_545  S
C1225      N1226   1.354   1_545  A
C1225      N1230   1.356       .  A
N1226      C1227   1.357   1_565  A
C1227      N1228   1.363       .  A
N1228      C1229   1.363       .  A
C1229      N1230   1.357       .  A
C1231      C1858   1.474   1_545  S
C1231      N1232   1.355       .  A
C1231      N1236   1.353   1_545  A
N1232      C1233   1.358       .  A
C1233      N1234   1.362       .  A
N1234      C1235   1.362       .  A
C1235      N1236   1.355   1_545  A
C1237      C1322   1.478       .  S
C1237      N1238   1.355       .  A
C1237      N1242   1.354       .  A
N1238      C1239   1.358       .  A
C1239      N1240   1.364       .  A
N1240      C1241   1.363       .  A
C1241      N1242   1.356       .  A
C1243      C1306   1.474       .  S
C1243      N1244   1.353       .  A
C1243      N1248   1.355       .  A
N1244      C1245   1.356       .  A
C1245      N1246   1.363       .  A
N1246      C1247   1.364       .  A
C1247      N1248   1.357       .  A
O1249      C1259   1.263       .  A
O1250      V1257   1.897       .  S
O1250      C1260   1.264       .  A
O1251      V1257   1.897       .  S
O1251      C1261   1.264       .  A
O1252      C1262   1.264       .  A
O1253      C1262   1.262       .  A
O1254      V1258   1.898       .  S
O1254      C1261   1.264       .  A
O1255      V1258   1.897       .  S
O1255      C1260   1.263       .  A
O1256      C1259   1.265       .  A
V1257      V1258   2.088       .  T
C1259      C1405   1.483       .  S
C1260      C1370   1.470       .  S
C1261      C1418   1.477       .  S
C1262      C1389   1.469       .  S
O1263      V1271   1.902       .  S
O1263      C1273   1.265       .  A
O1264      V1271   1.901       .  S
O1264      C1274   1.267       .  A
O1265      V1271   1.898       .  S
O1265      C1275   1.263       .  A
O1266      V1271   1.899       .  S
O1266      C1276   1.262       .  A
O1267      V1272   1.899       .  S
O1267      C1276   1.264       .  A
O1268      V1272   1.898       .  S
O1268      C1275   1.263       .  A
O1269      V1272   1.892       .  S
O1269      C1274   1.261       .  A
O1270      V1272   1.893       .  S
O1270      C1273   1.261       .  A
V1271      V1272   2.088       .  T
C1273      C1309   1.467       .  S
C1274      C1341   1.486       .  S
C1275      C1357   1.470       .  S
C1276      C1325   1.470       .  S
O1277      V1285   1.896       .  S
O1277      C1287   1.263       .  A
O1278      V1285   1.901       .  S
O1278      C1288   1.265       .  A
O1279      V1285   1.895       .  S
O1279      C1289   1.263       .  A
O1280      V1285   1.897       .  S
O1280      C1290   1.263       .  A
O1281      V1286   1.894       .  S
O1281      C1290   1.264       .  A
O1282      V1286   1.900       .  S
O1282      C1289   1.264       .  A
O1283      V1286   1.891       .  S
O1283      C1288   1.262       .  A
O1284      V1286   1.897       .  S
O1284      C1287   1.263       .  A
V1285      V1286   2.088       .  T
C1287      C1549   1.469       .  S
C1288      C1517   1.480       .  S
C1289      C1530   1.472       .  S
C1290      C1498   1.474       .  S
O1291      C1301   1.262       .  A
O1292      V1299   1.887       .  S
O1292      C1302   1.263       .  A
O1293      C1303   1.265       .  A
O1294      V1299   1.894       .  S
O1294      C1304   1.262       .  A
O1295      V1300   1.896       .  S
O1295      C1304   1.262       .  A
O1296      C1303   1.263       .  A
O1297      V1300   1.903       .  S
O1297      C1302   1.265       .  A
O1298      C1301   1.266       .  A
V1299      V1300   2.085       .  T
C1301      C1485   1.483       .  S
C1302      C1453   1.484       .  S
C1303      C1437   1.482       .  S
C1304      C1466   1.463       .  S
C1305      C1306   1.402       .  A
C1305      C1310   1.401       .  A
C1305      H1312   1.084       .  S
C1306      C1307   1.416       .  A
C1307      C1308   1.404       .  A
C1307      C1314   1.508       .  S
C1308      C1309   1.400       .  A
C1308      H1313   1.085       .  S
C1309      C1310   1.409       .  A
C1310      C1311   1.504       .  S
C1311      H1315   1.111       .  S
C1311      H1316   1.110       .  S
C1311      H1317   1.109       .  S
C1314      H1318   1.109       .  S
C1314      H1319   1.111       .  S
C1314      H1320   1.110       .  S
C1321      C1322   1.405       .  A
C1321      C1326   1.404       .  A
C1321      H1328   1.083       .  S
C1322      C1323   1.416       .  A
C1323      C1324   1.403       .  A
C1323      C1330   1.509       .  S
C1324      C1325   1.399       .  A
C1324      H1329   1.080       .  S
C1325      C1326   1.410       .  A
C1326      C1327   1.508       .  S
C1327      H1331   1.111       .  S
C1327      H1332   1.111       .  S
C1327      H1333   1.110       .  S
C1330      H1334   1.110       .  S
C1330      H1335   1.109       .  S
C1330      H1336   1.111       .  S
C1337      C1338   1.400       .  A
C1337      C1342   1.403       .  A
C1337      H1864   1.085       .  S
C1338      C1751   1.474       .  S
C1338      C1339   1.412       .  A
C1339      C1340   1.401       .  A
C1339      C1346   1.506       .  S
C1340      C1341   1.406       .  A
C1340      H1345   1.084       .  S
C1341      C1342   1.422       .  A
C1342      C1343   1.508       .  S
C1343      H1867   1.110       .  S
C1343      H1348   1.111       .  S
C1343      H1349   1.110       .  S
H1344      C1857   1.085       .  S
C1346      H1350   1.109       .  S
C1346      H1351   1.109       .  S
C1346      H1352   1.111       .  S
H1347      C1863   1.110       .  S
C1353      C1354   1.403       .  A
C1353      C1358   1.401       .  A
C1353      H1880   1.085       .  S
C1354      C1745   1.476       .  S
C1354      C1355   1.415       .  A
C1355      C1356   1.403       .  A
C1355      C1362   1.507       .  S
C1356      C1357   1.402       .  A
C1356      H1361   1.085       .  S
C1357      C1358   1.414       .  A
C1358      C1359   1.508       .  S
C1359      H1883   1.111       .  S
C1359      H1364   1.111       .  S
C1359      H1365   1.107       .  S
H1360      C1873   1.085   1_545  S
C1362      H1366   1.107       .  S
C1362      H1367   1.109       .  S
C1362      H1368   1.111       .  S
H1363      C1879   1.111       .  S
C1369      C1370   1.401       .  A
C1369      C1374   1.403       .  A
C1369      H1376   1.083       .  S
C1370      C1371   1.412       .  A
C1371      C1372   1.403       .  A
C1371      C1378   1.508       .  S
C1372      C1373   1.403       .  A
C1372      H1377   1.084       .  S
C1373      C1374   1.414       .  A
C1374      C1375   1.508       .  S
C1375      H1379   1.111       .  S
C1375      H1380   1.109       .  S
C1375      H1381   1.110       .  S
C1378      H1382   1.109       .  S
C1378      H1383   1.110       .  S
C1378      H1384   1.111       .  S
C1385      C1386   1.402       .  A
C1385      C1390   1.401       .  A
C1385      H1392   1.084       .  S
C1386      C1387   1.413       .  A
C1387      C1388   1.404       .  A
C1387      C1394   1.506       .  S
C1388      C1389   1.401       .  A
C1388      H1393   1.084       .  S
C1389      C1390   1.411       .  A
C1390      C1391   1.506       .  S
C1391      H1395   1.111       .  S
C1391      H1396   1.110       .  S
C1391      H1397   1.110       .  S
C1394      H1398   1.110       .  S
C1394      H1399   1.109       .  S
C1394      H1400   1.109       .  S
C1401      C1402   1.404       .  A
C1401      C1406   1.403       .  A
C1401      H1928   1.085       .  S
C1402      C1727   1.480       .  S
C1402      C1403   1.417       .  A
C1403      C1404   1.401       .  A
C1403      C1410   1.510       .  S
C1404      C1405   1.404       .  A
C1404      H1409   1.084       .  S
C1405      C1406   1.418       .  A
C1406      C1407   1.508       .  S
C1407      H1931   1.111       .  S
C1407      H1412   1.111       .  S
C1407      H1413   1.110       .  S
H1408      C1921   1.085       .  S
C1410      H1414   1.110       .  S
C1410      H1415   1.110       .  S
C1410      H1416   1.111   1_554  S
H1411      C1927   1.111       .  S
C1417      C1418   1.401       .  A
C1417      C1422   1.402       .  A
C1417      H1424   1.085       .  S
C1418      C1419   1.417       .  A
C1419      C1420   1.403       .  A
C1419      C1426   1.509       .  S
C1420      C1421   1.405       .  A
C1420      H1425   1.085       .  S
C1421      C1721   1.489       .  S
C1421      C1422   1.422       .  A
C1422      C1943   1.510       .  S
C1423      C1942   1.510   1_545  S
C1423      H1427   1.111       .  S
C1423      H1428   1.109       .  S
C1423      H1429   1.109       .  S
C1426      H1430   1.105       .  S
C1426      H1431   1.111       .  S
C1426      H1432   1.111   1_554  S
C1433      C1434   1.403       .  A
C1433      C1438   1.404       .  A
C1433      H1440   1.084       .  S
C1434      C1701   1.480   1_545  S
C1434      C1435   1.416       .  A
C1435      C1436   1.401       .  A
C1435      C1962   1.507       .  S
C1436      C1437   1.404       .  A
C1436      H1441   1.084       .  S
C1437      C1438   1.418       .  A
C1438      C1439   1.508       .  S
C1439      H1443   1.111   1_556  S
C1439      H1444   1.111       .  S
C1439      H1445   1.110   1_556  S
C1442      C1955   1.507       .  S
C1442      H1446   1.106       .  S
C1442      H1447   1.109       .  S
C1442      H1448   1.111       .  S
C1449      C1450   1.403       .  A
C1449      C1454   1.404       .  A
C1449      H1976   1.085       .  S
C1450      C1695   1.473   1_545  S
C1450      C1451   1.412       .  A
C1451      C1452   1.399       .  A
C1451      C1458   1.510       .  S
C1452      C1453   1.407       .  A
C1452      H1457   1.084       .  S
C1453      C1454   1.418       .  A
C1454      C1455   1.508       .  S
C1455      H1979   1.111   1_556  S
C1455      H1460   1.110   1_556  S
C1455      H1461   1.110       .  S
H1456      C1969   1.085       .  S
C1458      H1462   1.109   1_545  S
C1458      H1463   1.109       .  S
C1458      H1464   1.111       .  S
H1459      C1975   1.111   1_554  S
C1465      C1466   1.399       .  A
C1465      C1470   1.401       .  A
C1465      H1472   1.085       .  S
C1466      C1467   1.409       .  A
C1467      C1468   1.401       .  A
C1467      C1474   1.508       .  S
C1468      C1469   1.404       .  A
C1468      H1473   1.084       .  S
C1469      C1470   1.416       .  A
C1470      C1471   1.509       .  S
C1471      H1475   1.111       .  S
C1471      H1476   1.109       .  S
C1471      H1477   1.110       .  S
C1474      H1478   1.110       .  S
C1474      H1479   1.111       .  S
C1474      H1480   1.111       .  S
C1481      C1482   1.402       .  A
C1481      C1486   1.402       .  A
C1481      H1488   1.085       .  S
C1482      C1483   1.414       .  A
C1483      C1484   1.402       .  A
C1483      C1490   1.508       .  S
C1484      C1485   1.405       .  A
C1484      H1489   1.084       .  S
C1485      C1486   1.419       .  A
C1486      C1487   1.509       .  S
C1487      H1491   1.111       .  S
C1487      H1492   1.109       .  S
C1487      H1493   1.111       .  S
C1490      H1494   1.109       .  S
C1490      H1495   1.110   1_556  S
C1490      H1496   1.111   1_556  S
C1497      C1498   1.399       .  A
C1497      C1502   1.401       .  A
C1497      H1504   1.085       .  S
C1498      C1499   1.412       .  A
C1499      C1500   1.402       .  A
C1499      C1506   1.508       .  S
C1500      C1501   1.408       .  A
C1500      H2025   1.084       .  S
C1501      C1635   1.489   1_545  S
C1501      C1502   1.425       .  A
C1502      C1503   1.512   1_545  S
C1503      H1507   1.111       .  S
C1503      H1508   1.107       .  S
C1503      H1509   1.110       .  S
H1505      C2020   1.084       .  S
C1506      H1510   1.110       .  S
C1506      H1511   1.110       .  S
C1506      H2032   1.111       .  S
H1512      C2026   1.111       .  S
C1513      C1514   1.404       .  A
C1513      C1518   1.400       .  A
C1513      H1520   1.084   1_545  S
C1514      C1629   1.481   1_545  S
C1514      C1515   1.417       .  A
C1515      C1516   1.404       .  A
C1515      C1522   1.508       .  S
C1516      C1517   1.404       .  A
C1516      H1521   1.084       .  S
C1517      C1518   1.417       .  A
C1518      C1519   1.509       .  S
C1519      H1523   1.111       .  S
C1519      H1524   1.109       .  S
C1519      H1525   1.111       .  S
C1522      H1526   1.109       .  S
C1522      H2047   1.109       .  S
C1522      H1528   1.111       .  S
H1527      C2042   1.109       .  S
C1529      C1530   1.401       .  A
C1529      C1534   1.402       .  A
C1529      H1536   1.085       .  S
C1530      C1531   1.413       .  A
C1531      C1532   1.404       .  A
C1531      C1538   1.507       .  S
C1532      C1533   1.403       .  A
C1532      H1537   1.084       .  S
C1533      C1534   1.414       .  A
C1534      C1535   1.508       .  S
C1535      H1539   1.109       .  S
C1535      H1540   1.109       .  S
C1535      H1541   1.110       .  S
C1538      H1542   1.110       .  S
C1538      H1543   1.111       .  S
C1538      H1544   1.111       .  S
C1545      C1546   1.402       .  A
C1545      C1550   1.403       .  A
C1545      H1552   1.085       .  S
C1546      C1547   1.414       .  A
C1547      C1548   1.401       .  A
C1547      C1554   1.508       .  S
C1548      C1549   1.401       .  A
C1548      H1553   1.085       .  S
C1549      C1550   1.413       .  A
C1550      C1551   1.508       .  S
C1551      H1555   1.111       .  S
C1551      H1556   1.110       .  S
C1551      H1557   1.109       .  S
C1554      H1558   1.110       .  S
C1554      H1559   1.109       .  S
C1554      H1560   1.111       .  S
O1561      V1569   1.905       .  S
O1561      C1571   1.267       .  A
O1562      V1569   1.901       .  S
O1562      C1572   1.262       .  A
O1563      V1569   1.898       .  S
O1563      C1573   1.261       .  A
O1564      V1569   1.899       .  S
O1564      C1574   1.265       .  A
O1565      V1570   1.897       .  S
O1565      C1574   1.261       .  A
O1566      V1570   1.897       .  S
O1566      C1573   1.265       .  A
O1567      V1570   1.898       .  S
O1567      C1572   1.265       .  A
O1568      V1570   1.900       .  S
O1568      C1571   1.262       .  A
V1569      V1570   2.090       .  T
C1571      C1703   1.467       .  S
C1572      C1607   1.463       .  S
C1573      C1639   1.460       .  S
C1574      C1659   1.461       .  S
O1575      V1583   1.899       .  S
O1575      C1585   1.262       .  A
O1576      V1583   1.900       .  S
O1576      C1586   1.266       .  A
O1577      V1583   1.900       .  S
O1577      C1587   1.266       .  A
O1578      V1583   1.901       .  S
O1578      C1588   1.262       .  A
O1579      V1584   1.902       .  S
O1579      C1588   1.266       .  A
O1580      V1584   1.900       .  S
O1580      C1587   1.262       .  A
O1581      V1584   1.897       .  S
O1581      C1586   1.261       .  A
O1582      V1584   1.900       .  S
O1582      C1585   1.265       .  A
V1583      V1584   2.089       .  T
C1585      C1633   1.464       .  S
C1586      C1665   1.462       .  S
C1587      C1699   1.463       .  S
C1588      C1613   1.466       .  S
O1589      C1599   1.262       .  A
O1590      V1597   1.900       .  S
O1590      C1600   1.265       .  A
O1591      C1601   1.266       .  A
O1592      V1597   1.900       .  S
O1592      C1602   1.263       .  A
O1593      V1598   1.906       .  S
O1593      C1602   1.266       .  A
O1594      C1601   1.263       .  A
O1595      V1598   1.901       .  S
O1595      C1600   1.262       .  A
O1596      C1599   1.266       .  A
V1597      V1598   2.089       .  T
C1599      C1605   1.465       .  S
C1600      C1765   1.465       .  S
C1601      C1759   1.468       .  S
C1602      C1611   1.469       .  S
C1603      C2066   1.471       .  S
C1603      N1604   1.355       .  A
C1603      N1608   1.353       .  A
N1604      C1605   1.357       .  A
C1605      N1606   1.363       .  A
N1606      C1607   1.362       .  A
C1607      N1608   1.355       .  A
C1609      C2053   1.474       .  S
C1609      N1610   1.357       .  A
C1609      N1614   1.353       .  A
N1610      C1611   1.360       .  A
C1611      N1612   1.364       .  A
N1612      C1613   1.363       .  A
C1613      N1614   1.354       .  A
O1616      V1623   1.901       .  S
O1616      C1626   1.262       .  A
O1617      C1627   1.262       .  A
O1618      V1623   1.902       .  S
O1619      V1624   1.897       .  S
O1619      C1628   1.261       .  A
O1621      V1624   1.903       .  S
O1622      C1625   1.263       .  A
C1625      C1637   1.468       .  S
C1626      C1747   1.467       .  S
C1627      C1755   1.462       .  S
C1628      C1631   1.463       .  S
C1629      N1630   1.354       .  A
C1629      N1634   1.355       .  A
N1630      C1631   1.356       .  A
C1631      N1632   1.362       .  A
N1632      C1633   1.362       .  A
C1633      N1634   1.356       .  A
C1635      N1636   1.359       .  A
C1635      N1640   1.349       .  A
N1636      C1637   1.360       .  A
C1637      N1638   1.364       .  A
N1638      C1639   1.361       .  A
C1639      N1640   1.351       .  A
O1641      V1649   1.903       .  S
O1641      C1651   1.266       .  A
O1642      V1649   1.898   1_556  S
O1642      C1652   1.262       .  A
O1643      V1649   1.898   1_556  S
O1643      C1653   1.262       .  A
O1644      V1649   1.902       .  S
O1644      C1654   1.266       .  A
O1645      V1650   1.897   1_554  S
O1645      C1654   1.262       .  A
O1646      V1650   1.900       .  S
O1646      C1653   1.265       .  A
O1647      V1650   1.901       .  S
O1647      C1652   1.265       .  A
O1648      V1650   1.898   1_554  S
O1648      C1651   1.262       .  A
V1649      V1650   2.090   1_554  T
C1651      C1743   1.465       .  S
C1652      C1657   1.462       .  S
C1653      C1663   1.463       .  S
C1654      C1737   1.464       .  S
C1655      C2002   1.478       .  S
C1655      N1656   1.354       .  A
C1655      N1660   1.354       .  A
N1656      C1657   1.356       .  A
C1657      N1658   1.362       .  A
N1658      C1659   1.361       .  A
C1659      N1660   1.356       .  A
C1661      C1989   1.474       .  S
C1661      N1662   1.354       .  A
C1661      N1666   1.353       .  A
N1662      C1663   1.356       .  A
C1663      N1664   1.362       .  A
N1664      C1665   1.362       .  A
C1665      N1666   1.355       .  A
O1667      V1675   1.903       .  S
O1667      C1677   1.263       .  A
O1668      V1675   1.903       .  S
O1668      C1678   1.266       .  A
O1669      V1675   1.900       .  S
O1669      C1679   1.265       .  A
O1670      V1675   1.898       .  S
O1670      C1680   1.262       .  A
O1671      V1676   1.902       .  S
O1671      C1680   1.266       .  A
O1672      V1676   1.898       .  S
O1672      C1679   1.262       .  A
O1673      V1676   1.897       .  S
O1673      C1678   1.261       .  A
O1674      V1676   1.901       .  S
O1674      C1677   1.266       .  A
V1675      V1676   2.089       .  T
C1677      C1761   1.468       .  S
C1678      C1729   1.463       .  S
C1679      C1735   1.461       .  S
C1680      C1753   1.464       .  S
O1681      V1689   1.895   1_556  S
O1681      C1691   1.260       .  A
O1682      V1689   1.898       .  S
O1683      V1689   1.908       .  S
O1684      V1689   1.905   1_556  S
O1684      C1694   1.263       .  A
O1685      V1690   1.905       .  S
O1686      V1690   1.902   1_554  S
O1686      C1693   1.263       .  A
O1687      V1690   1.899   1_554  S
O1687      C1692   1.262       .  A
O1688      V1690   1.901       .  S
C1691      C1697   1.460       .  S
C1692      C1731   1.462       .  S
C1693      C1725   1.471       .  S
C1694      C1705   1.470       .  S
C1695      N1696   1.353   1_565  A
C1695      N1700   1.353       .  A
N1696      C1697   1.355   1_545  A
C1697      N1698   1.363       .  A
N1698      C1699   1.363       .  A
C1699      N1700   1.355       .  A
C1701      N1702   1.354       .  A
C1701      N1706   1.357   1_565  A
N1702      C1703   1.355       .  A
C1703      N1704   1.364       .  A
N1704      C1705   1.364       .  A
C1705      N1706   1.358   1_565  A
O1707      V1715   1.901       .  S
O1707      C1717   1.265       .  A
O1708      V1715   1.901       .  S
O1708      C1718   1.262       .  A
O1709      V1715   1.898       .  S
O1709      C1719   1.262       .  A
O1710      V1715   1.899       .  S
O1710      C1720   1.266       .  A
O1711      V1716   1.903       .  S
O1711      C1720   1.262       .  A
O1712      V1716   1.905       .  S
O1712      C1719   1.266       .  A
O1713      V1716   1.905       .  S
O1713      C1718   1.266       .  A
O1714      V1716   1.900       .  S
O1714      C1717   1.262       .  A
V1715      V1716   2.089       .  T
C1717      C1741   1.465       .  S
C1718      C1749   1.468       .  S
C1719      C1767   1.466       .  S
C1720      C1723   1.465       .  S
C1721      N1722   1.351       .  A
C1721      N1726   1.359       .  A
N1722      C1723   1.353       .  A
C1723      N1724   1.362       .  A
N1724      C1725   1.365       .  A
C1725      N1726   1.360       .  A
C1727      N1728   1.355       .  A
C1727      N1732   1.352       .  A
N1728      C1729   1.357       .  A
C1729      N1730   1.363       .  A
N1730      C1731   1.362       .  A
C1731      N1732   1.354       .  A
C1733      C1906   1.472       .  S
C1733      N1734   1.353       .  A
C1733      N1738   1.355       .  A
N1734      C1735   1.355       .  A
C1735      N1736   1.361       .  A
N1736      C1737   1.362       .  A
C1737      N1738   1.357       .  A
C1739      C1893   1.474       .  S
C1739      N1740   1.354       .  A
C1739      N1744   1.355       .  A
N1740      C1741   1.356       .  A
C1741      N1742   1.362       .  A
N1742      C1743   1.363       .  A
C1743      N1744   1.358       .  A
C1745      N1746   1.354       .  A
C1745      N1750   1.356       .  A
N1746      C1747   1.357       .  A
C1747      N1748   1.363       .  A
N1748      C1749   1.363       .  A
C1749      N1750   1.357       .  A
C1751      N1752   1.355       .  A
C1751      N1756   1.353       .  A
N1752      C1753   1.358       .  A
C1753      N1754   1.362       .  A
N1754      C1755   1.362       .  A
C1755      N1756   1.355       .  A
C1757      C1842   1.478       .  S
C1757      N1758   1.355       .  A
C1757      N1762   1.354       .  A
N1758      C1759   1.358       .  A
C1759      N1760   1.364       .  A
N1760      C1761   1.363       .  A
C1761      N1762   1.356       .  A
C1763      C1826   1.474       .  S
C1763      N1764   1.353       .  A
C1763      N1768   1.355       .  A
N1764      C1765   1.356       .  A
C1765      N1766   1.363       .  A
N1766      C1767   1.364       .  A
C1767      N1768   1.357       .  A
O1769      C1779   1.263       .  A
O1770      V1777   1.897       .  S
O1770      C1780   1.264       .  A
O1771      V1777   1.897       .  S
O1771      C1781   1.264       .  A
O1772      C1782   1.264       .  A
O1773      C1782   1.262       .  A
O1774      V1778   1.898       .  S
O1774      C1781   1.264       .  A
O1775      V1778   1.897       .  S
O1775      C1780   1.263       .  A
O1776      C1779   1.265       .  A
V1777      V1778   2.088       .  T
C1779      C1925   1.483       .  S
C1780      C1890   1.470       .  S
C1781      C1938   1.477       .  S
C1782      C1909   1.469       .  S
O1783      V1791   1.902       .  S
O1783      C1793   1.265       .  A
O1784      V1791   1.901       .  S
O1784      C1794   1.267       .  A
O1785      V1791   1.898       .  S
O1785      C1795   1.263       .  A
O1786      V1791   1.899       .  S
O1786      C1796   1.262       .  A
O1787      V1792   1.899       .  S
O1787      C1796   1.264       .  A
O1788      V1792   1.898       .  S
O1788      C1795   1.263       .  A
O1789      V1792   1.892       .  S
O1789      C1794   1.261       .  A
O1790      V1792   1.893       .  S
O1790      C1793   1.261       .  A
V1791      V1792   2.088       .  T
C1793      C1829   1.467       .  S
C1794      C1861   1.486       .  S
C1795      C1877   1.470       .  S
C1796      C1845   1.470       .  S
O1797      V1805   1.896       .  S
O1797      C1807   1.263       .  A
O1798      V1805   1.901       .  S
O1798      C1808   1.265       .  A
O1799      V1805   1.895       .  S
O1799      C1809   1.263       .  A
O1800      V1805   1.897       .  S
O1800      C1810   1.263       .  A
O1801      V1806   1.894       .  S
O1801      C1810   1.264       .  A
O1802      V1806   1.900       .  S
O1802      C1809   1.264       .  A
O1803      V1806   1.891       .  S
O1803      C1808   1.262       .  A
O1804      V1806   1.897       .  S
O1804      C1807   1.263       .  A
V1805      V1806   2.088       .  T
C1807      C2069   1.469       .  S
C1808      C2037   1.480       .  S
C1809      C2050   1.472       .  S
C1810      C2018   1.474       .  S
O1811      C1821   1.262       .  A
O1812      V1819   1.887       .  S
O1812      C1822   1.263       .  A
O1813      C1823   1.265       .  A
O1814      V1819   1.894       .  S
O1814      C1824   1.262       .  A
O1815      V1820   1.896       .  S
O1815      C1824   1.262       .  A
O1816      C1823   1.263       .  A
O1817      V1820   1.903       .  S
O1817      C1822   1.265       .  A
O1818      C1821   1.266       .  A
V1819      V1820   2.085       .  T
C1821      C2005   1.483       .  S
C1822      C1973   1.484       .  S
C1823      C1957   1.482       .  S
C1824      C1986   1.463       .  S
C1825      C1826   1.402       .  A
C1825      C1830   1.401       .  A
C1825      H1832   1.084       .  S
C1826      C1827   1.416       .  A
C1827      C1828   1.404       .  A
C1827      C1834   1.508       .  S
C1828      C1829   1.400       .  A
C1828      H1833   1.085       .  S
C1829      C1830   1.409       .  A
C1830      C1831   1.504       .  S
C1831      H1835   1.111       .  S
C1831      H1836   1.110       .  S
C1831      H1837   1.109       .  S
C1834      H1838   1.109       .  S
C1834      H1839   1.111       .  S
C1834      H1840   1.110       .  S
C1841      C1842   1.405       .  A
C1841      C1846   1.404       .  A
C1841      H1848   1.083       .  S
C1842      C1843   1.416       .  A
C1843      C1844   1.403       .  A
C1843      C1850   1.509       .  S
C1844      C1845   1.399       .  A
C1844      H1849   1.080       .  S
C1845      C1846   1.410       .  A
C1846      C1847   1.508       .  S
C1847      H1851   1.111       .  S
C1847      H1852   1.111       .  S
C1847      H1853   1.110       .  S
C1850      H1854   1.110       .  S
C1850      H1855   1.109       .  S
C1850      H1856   1.111       .  S
C1857      C1858   1.400       .  A
C1857      C1862   1.403       .  A
C1858      C1859   1.412       .  A
C1859      C1860   1.401       .  A
C1859      C1866   1.506       .  S
C1860      C1861   1.406       .  A
C1860      H1865   1.084       .  S
C1861      C1862   1.422       .  A
C1862      C1863   1.508       .  S
C1863      H1868   1.111       .  S
C1863      H1869   1.110       .  S
C1866      H1870   1.109       .  S
C1866      H1871   1.109       .  S
C1866      H1872   1.111       .  S
C1873      C1874   1.403       .  A
C1873      C1878   1.401       .  A
C1874      C1875   1.415       .  A
C1875      C1876   1.403       .  A
C1875      C1882   1.507       .  S
C1876      C1877   1.402       .  A
C1876      H1881   1.085       .  S
C1877      C1878   1.414       .  A
C1878      C1879   1.508       .  S
C1879      H1884   1.111       .  S
C1879      H1885   1.107       .  S
C1882      H1886   1.107       .  S
C1882      H1887   1.109       .  S
C1882      H1888   1.111       .  S
C1889      C1890   1.401       .  A
C1889      C1894   1.403       .  A
C1889      H1896   1.083       .  S
C1890      C1891   1.412       .  A
C1891      C1892   1.403       .  A
C1891      C1898   1.508       .  S
C1892      C1893   1.403       .  A
C1892      H1897   1.084       .  S
C1893      C1894   1.414       .  A
C1894      C1895   1.508       .  S
C1895      H1899   1.111       .  S
C1895      H1900   1.109       .  S
C1895      H1901   1.110       .  S
C1898      H1902   1.109       .  S
C1898      H1903   1.110       .  S
C1898      H1904   1.111       .  S
C1905      C1906   1.402       .  A
C1905      C1910   1.401       .  A
C1905      H1912   1.084       .  S
C1906      C1907   1.413       .  A
C1907      C1908   1.404       .  A
C1907      C1914   1.506       .  S
C1908      C1909   1.401       .  A
C1908      H1913   1.084       .  S
C1909      C1910   1.411       .  A
C1910      C1911   1.506       .  S
C1911      H1915   1.111       .  S
C1911      H1916   1.110       .  S
C1911      H1917   1.110       .  S
C1914      H1918   1.110       .  S
C1914      H1919   1.109       .  S
C1914      H1920   1.109       .  S
C1921      C1922   1.404       .  A
C1921      C1926   1.403       .  A
C1922      C1923   1.417       .  A
C1923      C1924   1.401       .  A
C1923      C1930   1.510       .  S
C1924      C1925   1.404       .  A
C1924      H1929   1.084       .  S
C1925      C1926   1.418       .  A
C1926      C1927   1.508       .  S
C1927      H1932   1.111       .  S
C1927      H1933   1.110       .  S
C1930      H1934   1.110       .  S
C1930      H1935   1.110       .  S
C1930      H1936   1.111   1_554  S
C1937      C1938   1.401       .  A
C1937      C1942   1.402       .  A
C1937      H1944   1.085       .  S
C1938      C1939   1.417       .  A
C1939      C1940   1.403       .  A
C1939      C1946   1.509       .  S
C1940      C1941   1.405       .  A
C1940      H1945   1.085       .  S
C1941      C1942   1.422       .  A
C1943      H1947   1.111       .  S
C1943      H1948   1.109       .  S
C1943      H1949   1.109       .  S
C1946      H1950   1.105       .  S
C1946      H1951   1.111       .  S
C1946      H1952   1.111   1_554  S
C1953      C1954   1.403       .  A
C1953      C1958   1.404       .  A
C1953      H1960   1.084       .  S
C1954      C1955   1.416       .  A
C1955      C1956   1.401       .  A
C1956      C1957   1.404       .  A
C1956      H1961   1.084       .  S
C1957      C1958   1.418       .  A
C1958      C1959   1.508       .  S
C1959      H1963   1.111   1_556  S
C1959      H1964   1.111       .  S
C1959      H1965   1.110   1_556  S
C1962      H1966   1.106       .  S
C1962      H1967   1.109   1_545  S
C1962      H1968   1.111       .  S
C1969      C1970   1.403       .  A
C1969      C1974   1.404       .  A
C1970      C1971   1.412       .  A
C1971      C1972   1.399       .  A
C1971      C1978   1.510       .  S
C1972      C1973   1.407       .  A
C1972      H1977   1.084       .  S
C1973      C1974   1.418       .  A
C1974      C1975   1.508       .  S
C1975      H1980   1.110   1_556  S
C1975      H1981   1.110       .  S
C1978      H1982   1.109       .  S
C1978      H1983   1.109       .  S
C1978      H1984   1.111       .  S
C1985      C1986   1.399       .  A
C1985      C1990   1.401       .  A
C1985      H1992   1.085       .  S
C1986      C1987   1.409       .  A
C1987      C1988   1.401       .  A
C1987      C1994   1.508       .  S
C1988      C1989   1.404       .  A
C1988      H1993   1.084       .  S
C1989      C1990   1.416       .  A
C1990      C1991   1.509       .  S
C1991      H1995   1.111       .  S
C1991      H1996   1.109       .  S
C1991      H1997   1.110       .  S
C1994      H1998   1.110       .  S
C1994      H1999   1.111       .  S
C1994      H2000   1.111       .  S
C2001      C2002   1.402       .  A
C2001      C2006   1.402       .  A
C2001      H2008   1.085       .  S
C2002      C2003   1.414       .  A
C2003      C2004   1.402       .  A
C2003      C2010   1.508       .  S
C2004      C2005   1.405       .  A
C2004      H2009   1.084       .  S
C2005      C2006   1.419       .  A
C2006      C2007   1.509       .  S
C2007      H2011   1.111       .  S
C2007      H2012   1.109       .  S
C2007      H2013   1.111       .  S
C2010      H2014   1.109       .  S
C2010      H2015   1.110   1_556  S
C2010      H2016   1.111   1_556  S
C2017      C2018   1.399       .  A
C2017      C2022   1.401       .  A
C2017      H2024   1.085       .  S
C2018      C2019   1.412       .  A
C2019      C2020   1.402       .  A
C2019      C2026   1.508       .  S
C2020      C2021   1.408       .  A
C2021      C2022   1.425       .  A
C2022      C2023   1.512       .  S
C2023      H2027   1.111       .  S
C2023      H2028   1.107       .  S
C2023      H2029   1.110       .  S
C2026      H2030   1.110       .  S
C2026      H2031   1.110       .  S
C2033      C2034   1.404       .  A
C2033      C2038   1.400       .  A
C2033      H2040   1.084       .  S
C2034      C2035   1.417       .  A
C2035      C2036   1.404       .  A
C2035      C2042   1.508       .  S
C2036      C2037   1.404       .  A
C2036      H2041   1.084       .  S
C2037      C2038   1.417       .  A
C2038      C2039   1.509       .  S
C2039      H2043   1.111       .  S
C2039      H2044   1.109       .  S
C2039      H2045   1.111       .  S
C2042      H2046   1.109       .  S
C2042      H2048   1.111       .  S
C2049      C2050   1.401       .  A
C2049      C2054   1.402       .  A
C2049      H2056   1.085       .  S
C2050      C2051   1.413       .  A
C2051      C2052   1.404       .  A
C2051      C2058   1.507       .  S
C2052      C2053   1.403       .  A
C2052      H2057   1.084       .  S
C2053      C2054   1.414       .  A
C2054      C2055   1.508       .  S
C2055      H2059   1.109       .  S
C2055      H2060   1.109       .  S
C2055      H2061   1.110       .  S
C2058      H2062   1.110       .  S
C2058      H2063   1.111       .  S
C2058      H2064   1.111       .  S
C2065      C2066   1.402       .  A
C2065      C2070   1.403       .  A
C2065      H2072   1.085       .  S
C2066      C2067   1.414       .  A
C2067      C2068   1.401       .  A
C2067      C2074   1.508       .  S
C2068      C2069   1.401       .  A
C2068      H2073   1.085       .  S
C2069      C2070   1.413       .  A
C2070      C2071   1.508       .  S
C2071      H2075   1.111       .  S
C2071      H2076   1.110       .  S
C2071      H2077   1.109       .  S
C2074      H2078   1.110       .  S
C2074      H2079   1.109       .  S
C2074      H2080   1.111       .  S
