geometry optimzed in LAMMPS
_audit_creation_date              2020-11-30 
_audit_creation_method            'lammps2cif' 
_symmetry_space_group_name_H-M    'P1' 
_symmetry_Int_Tables_number       1 
_symmetry_cell_setting            triclinic 
loop_ 
_symmetry_equiv_pos_as_xyz 
  x,y,z 
_cell_length_a                    37.00854465 
_cell_length_b                    36.06821638405138 
_cell_length_c                    36.41488367294606 
_cell_angle_alpha                 89.24838841169678 
_cell_angle_beta                  91.52560197909915 
_cell_angle_gamma                 90.45580693323046 
loop_ 
_atom_site_label 
_atom_site_type_symbol 
_atom_site_fract_x 
_atom_site_fract_y 
_atom_site_fract_z 
_atom_site_charge 
Zr1        Zr  0.65980928  0.66379333  0.56148984     2.17500
O2          O  0.63819832  0.65442083  0.49850391    -0.52200
O3          O  0.71361685  0.69785642  0.54241349    -0.75400
O4          O  0.61630446  0.71467764  0.54325858    -0.82200
O5          O  0.71975092  0.57898835  0.56974460    -0.83900
O6          O  0.61712739  0.74863806  0.59380248    -0.79600
O7          O  0.70279366  0.62410208  0.52859409    -0.91200
O8          O  0.74449832  0.71166182  0.59549591    -0.77200
O9          O  0.66219880  0.70977479  0.60820458    -0.86700
O10         O  0.70746397  0.64812871  0.60410839    -0.86300
O11         O  0.60233426  0.65779919  0.59158797    -0.73100
O12         O  0.64550238  0.60267061  0.58632286    -0.85200
Zr13       Zr  0.63863600  0.63002063  0.70623643     2.26400
Zr14       Zr  0.60596365  0.70321732  0.63920144     2.06300
Zr15       Zr  0.69419982  0.58912302  0.62915600     2.10000
Zr16       Zr  0.71028505  0.69387412  0.64964524     1.78800
O17         O  0.68370418  0.52374099  0.61630649    -0.94000
O18         O  0.70459591  0.76088607  0.65407438    -0.41800
O19         O  0.69631601  0.63451375  0.67670346    -0.78500
O20         O  0.65476046  0.69028962  0.68221777    -0.97200
O21         O  0.59005404  0.64425059  0.66469390    -0.90500
O22         O  0.63840035  0.58419044  0.65930552    -0.93300
C23         C  0.74155985  0.71017992  0.56021880     1.00400
C24         C  0.72134749  0.59513262  0.53824806     1.13400
C25         C  0.60435242  0.74206681  0.56212760     1.04200
O26         O  0.57767591  0.76340891  0.64677535    -0.95500
O27         O  0.59469825  0.72380910  0.69903478    -0.91200
O28         O  0.58818496  0.66925926  0.72872247    -0.84400
C29         C  0.57850804  0.70322631  0.72171337     1.10800
O30         O  0.55311119  0.58711777  0.56295617    -0.97400
Zr31       Zr  0.58931953  0.59805663  0.61881502     1.88900
O32         O  0.59927028  0.57926928  0.72431636    -0.74100
O33         O  0.54222067  0.69400770  0.62322827    -0.53300
O34         O  0.52618732  0.61598698  0.62303355    -0.98000
O35         O  0.59064923  0.53381812  0.59879013    -0.55200
O36         O  0.56852159  0.56185624  0.67227173    -0.74600
C37         C  0.57615707  0.55891329  0.70698375     0.97700
O38         O  0.65672290  0.64679387  0.76865734    -0.63400
O39         O  0.75961969  0.58221578  0.63569847    -0.58200
O40         O  0.67485108  0.57891806  0.73256349    -0.94900
O41         O  0.71045488  0.55892670  0.68673549    -0.93300
O42         O  0.77181326  0.67378063  0.66412305    -0.93700
O43         O  0.73920131  0.72026735  0.70430225    -0.92500
C44         C  0.69954515  0.55797842  0.71986174     1.16600
H45         H  0.73045363  0.64616923  0.59248135     0.32500
H46         H  0.65669420  0.70782959  0.70193939     0.43400
H47         H  0.63654474  0.55927995  0.66915725     0.36900
H48         H  0.58281324  0.66355500  0.57430380     0.33400
H49         H  0.70825254  0.77044996  0.62882639     0.25200
H50         H  0.52910298  0.70507590  0.64369504     0.31100
H51         H  0.52196004  0.61813663  0.64965366     0.37000
H52         H  0.76909902  0.65194633  0.68061730     0.31500
H53         H  0.76489968  0.55816810  0.62426335     0.30400
H54         H  0.67405058  0.51298895  0.63923291     0.32000
H55         H  0.59864827  0.51932763  0.62076902     0.31000
H56         H  0.73351326  0.70254824  0.72436979     0.35000
H57         H  0.68339226  0.64469028  0.76940660     0.27700
H58         H  0.64060502  0.67895907  0.48624965     0.32000
H59         H  0.53428489  0.56883253  0.56988957     0.34800
H60         H  0.77020655  0.60105639  0.61904255     0.27400
H61         H  0.65228253  0.67377165  0.76989014     0.40300
H62         H  0.59756020  0.78070390  0.65374059     0.30400
H63         H  0.67863829  0.76501073  0.65841316     0.38000
H64         H  0.61123593  0.53271529  0.58205397     0.29800
H65         H  0.53727836  0.71074327  0.60198900     0.29900
H66         H  0.61181608  0.65037463  0.50040023     0.30200
Zr67       Zr  0.90321419  0.65465205  0.28859729     2.17500
O68         O  0.87429997  0.68243908  0.23406334    -0.52200
O69         O  0.93691781  0.60835728  0.25545162    -0.75400
O70         O  0.94341803  0.70688357  0.26350114    -0.82200
O71         O  0.83144643  0.57908407  0.30512981    -0.83900
O72         O  0.97318714  0.73342803  0.31197448    -0.79600
O73         O  0.86168622  0.60810719  0.25895528    -0.91200
O74         O  0.96089172  0.56814516  0.29823056    -0.77200
O75         O  0.95780008  0.64830520  0.32443265    -0.86700
O76         O  0.89960971  0.59925496  0.32543963    -0.86300
O77         O  0.90322629  0.70690519  0.32929672    -0.73100
O78         O  0.85063569  0.65996691  0.32698707    -0.85200
Zr79       Zr  0.90443088  0.65120536  0.43906934     2.26400
Zr80       Zr  0.95773708  0.69940649  0.36516560     2.06300
Zr81       Zr  0.84887218  0.60398589  0.36342279     2.10000
Zr82       Zr  0.95343049  0.59250657  0.36007453     1.78800
O83         O  0.78400345  0.61125517  0.35338682    -0.94000
O84         O  0.01847462  0.59823135  0.35224638    -0.41800
O85         O  0.90297010  0.59719692  0.40038527    -0.78500
O86         O  0.95614209  0.64370414  0.40117269    -0.97200
O87         O  0.90739098  0.70717316  0.40386433    -0.90500
O88         O  0.85051782  0.65577668  0.40185714    -0.93300
C89         C  0.95336943  0.57827236  0.26486417     1.00400
C90         C  0.83939032  0.58330095  0.27139750     1.13400
C91         C  0.96511127  0.73198769  0.27791749     1.04200
O92         O  0.02175714  0.69160671  0.35367211    -0.95500
O93         O  0.99018067  0.70825817  0.42098896    -0.91200
O94         O  0.94806819  0.69930939  0.46434267    -0.84400
C95         C  0.97778647  0.71429215  0.45244534     1.10800
O96         O  0.83158946  0.75500893  0.32083472    -0.97400
Zr97       Zr  0.85247612  0.71166279  0.36866018     1.88900
O98         O  0.86132079  0.68532023  0.47282150    -0.74100
O99         O  0.96186290  0.76532059  0.37892517    -0.53300
O100        O  0.86507270  0.77632863  0.38337612    -0.98000
O101        O  0.78731259  0.70684574  0.35775560    -0.55200
O102        O  0.82824273  0.71923633  0.43081372    -0.74600
C103        C  0.83542226  0.70709203  0.46374321     0.97700
O104        O  0.93420418  0.62005833  0.49120612    -0.63400
O105        O  0.84591431  0.53705222  0.37269057    -0.58200
O106        O  0.85514369  0.61459337  0.46794532    -0.94900
O107        O  0.82107790  0.58944155  0.42126380    -0.93300
O108        O  0.93669169  0.52727291  0.36548259    -0.93700
O109        O  0.98873237  0.55959940  0.40742459    -0.92500
C110        C  0.82743803  0.59607324  0.45533862     1.16600
H111        H  0.89719563  0.57714302  0.31107646     0.32500
H112        H  0.97773010  0.64115219  0.41649823     0.43400
H113        H  0.82849145  0.65545471  0.41531102     0.36900
H114        H  0.90388716  0.72978197  0.31526170     0.33400
H115        H  0.02659035  0.57275314  0.34716448     0.25200
H116        H  0.98654947  0.77294998  0.37199073     0.31100
H117        H  0.87693791  0.77567535  0.40806571     0.37000
H118        H  0.95707688  0.51369409  0.35502337     0.31500
H119        H  0.82196436  0.52964810  0.36231689     0.30400
H120        H  0.77336363  0.58742618  0.36175423     0.32000
H121        H  0.77843669  0.69132262  0.37828577     0.31000
H122        H  0.98155853  0.57076615  0.43080173     0.35000
H123        H  0.95901063  0.61529088  0.48299464     0.27700
H124        H  0.88898069  0.67409945  0.21341789     0.32000
H125        H  0.81263917  0.77001143  0.33212505     0.34800
H126        H  0.86342661  0.52699390  0.35540471     0.27400
H127        H  0.93727234  0.63947112  0.51003489     0.40300
H128        H  0.03347076  0.71476869  0.36237944     0.30400
H129        H  0.02111657  0.61166310  0.32857079     0.38000
H130        H  0.78428784  0.69103120  0.33585068     0.29800
H131        H  0.94562365  0.77771676  0.36062126     0.29900
H132        H  0.87918137  0.70940313  0.23570746     0.30200
Zr133      Zr  0.89028242  0.39823206  0.18005456     2.17500
O134        O  0.87762356  0.38576874  0.24432971    -0.52200
O135        O  0.92920881  0.45167603  0.19304005    -0.75400
O136        O  0.93483370  0.35226030  0.20690283    -0.82200
O137        O  0.81576763  0.46791249  0.16208369    -0.83900
O138        O  0.96766413  0.34010482  0.15802070    -0.79600
O139        O  0.85598129  0.44894187  0.20679157    -0.91200
O140        O  0.94799521  0.47456810  0.13807502    -0.77200
O141        O  0.93499247  0.38857208  0.13542694    -0.86700
O142        O  0.88097427  0.44266910  0.13163392    -0.86300
O143        O  0.87761324  0.33655534  0.15775450    -0.73100
O144        O  0.82946923  0.38792320  0.15541654    -0.85200
Zr145      Zr  0.85693783  0.36079015  0.03847002     2.26400
Zr146      Zr  0.92233186  0.32786141  0.11244121     2.06300
Zr147      Zr  0.82223532  0.43233847  0.10638442     2.10000
Zr148      Zr  0.92630824  0.43370138  0.08832338     1.78800
O149        O  0.75765846  0.42492663  0.11572432    -0.94000
O150        O  0.99147459  0.42455111  0.08838905    -0.41800
O151        O  0.86741807  0.42240987  0.06169699    -0.78500
O152        O  0.91694538  0.37244521  0.06347531    -0.97200
O153        O  0.86353695  0.31635597  0.08666291    -0.90500
O154        O  0.81097641  0.37198407  0.08218800    -0.93300
C155        C  0.94553237  0.47603740  0.17330687     1.00400
C156        C  0.83064368  0.47030858  0.19421610     1.13400
C157        C  0.96042221  0.33438410  0.19137254     1.04200
O158        O  0.97991345  0.31419849  0.08484872    -0.95500
O159        O  0.91670718  0.28090491  0.06772122    -0.91200
O160        O  0.89858762  0.31182810  0.01621432    -0.84400
C161        C  0.91544739  0.28488264  0.03302337     1.10800
O162        O  0.79963891  0.30370403  0.18978419    -0.97400
Zr163      Zr  0.81852052  0.32717362  0.13021558     1.88900
O164        O  0.80770667  0.31701776  0.02572682    -0.74100
O165        O  0.92507693  0.27037844  0.14835888    -0.53300
O166        O  0.82960311  0.26185399  0.14376279    -0.98000
O167        O  0.75523680  0.33973388  0.14198567    -0.55200
O168        O  0.78666406  0.29503879  0.08007858    -0.74600
C169        C  0.78668350  0.29633740  0.04479162     0.97700
O170        O  0.86562988  0.36919143  0.97273159    -0.63400
O171        O  0.81593948  0.49848315  0.09300276    -0.58200
O172        O  0.82009935  0.40678663  0.00429292    -0.94900
O173        O  0.80197179  0.44969732  0.04524922    -0.93300
O174        O  0.91093895  0.49487881  0.06372384    -0.93700
O175        O  0.95341446  0.44801435  0.02953445    -0.92500
C176        C  0.80370555  0.43676754  0.01281036     1.16600
H177        H  0.88176891  0.46785044  0.14022527     0.32500
H178        H  0.93484144  0.36790180  0.04522516     0.43400
H179        H  0.78713566  0.37082476  0.07081317     0.36900
H180        H  0.88080768  0.31868357  0.17753805     0.33400
H181        H  0.99974654  0.42854093  0.11412719     0.25200
H182        H  0.90245412  0.25697185  0.14175247     0.31100
H183        H  0.83281566  0.25032511  0.11955400     0.37000
H184        H  0.92811458  0.51213112  0.07608854     0.31500
H185        H  0.79295115  0.50576388  0.10410090     0.30400
H186        H  0.75501676  0.42636933  0.14265475     0.32000
H187        H  0.74347479  0.31498565  0.14284867     0.31000
H188        H  0.93450353  0.44134317  0.01097083     0.35000
H189        H  0.89159203  0.37541642  0.97049881     0.27700
H190        H  0.90018160  0.39263230  0.25789788     0.32000
H191        H  0.81738156  0.31430783  0.20764044     0.34800
H192        H  0.83508290  0.51091831  0.10797131     0.27400
H193        H  0.86283092  0.34420889  0.96203385     0.40300
H194        H  0.99078624  0.29456747  0.10076816     0.30400
H195        H  0.99438283  0.39760162  0.08468841     0.38000
H196        H  0.74550304  0.35115655  0.11897603     0.29800
H197        H  0.94429046  0.25576920  0.13705568     0.29900
H198        H  0.87612566  0.35840435  0.24654076     0.30200
C199        C  0.77236570  0.51730412  0.95798961     0.79300
N200        N  0.79314695  0.49516360  0.98021904    -0.79000
C201        C  0.78491658  0.45865374  0.98421258     0.81800
N202        N  0.75421840  0.44523849  0.96818466    -0.78900
C203        C  0.73269183  0.46757877  0.94681346     0.81900
N204        N  0.74195985  0.50352607  0.94136407    -0.80600
C205        C  0.02024987  0.53532607  0.20687985     0.79300
N206        N  0.00391897  0.55747340  0.23092531    -0.79000
C207        C  0.96800121  0.55525664  0.23574130     0.81800
N208        N  0.94804383  0.52892674  0.21720291    -0.78900
C209        C  0.96455510  0.50671546  0.19237574     0.81900
N210        N  0.00052974  0.51027069  0.18746041    -0.80600
Zr211      Zr  0.61967914  0.28976384  0.88983363     2.17500
O212        O  0.64321480  0.23038007  0.87064132    -0.52200
O213        O  0.57607159  0.26215863  0.93072421    -0.75400
O214        O  0.66587301  0.26711527  0.93520287    -0.82200
O215        O  0.55506110  0.29899910  0.80743004    -0.83900
O216        O  0.66867972  0.31465853  0.97403598    -0.79600
O217        O  0.57858989  0.25640451  0.84813286    -0.91200
O218        O  0.54713088  0.30936715  0.95816048    -0.77200
O219        O  0.62087367  0.33078148  0.94049487    -0.86700
O220        O  0.56767185  0.32829995  0.88263045    -0.86300
O221        O  0.67548861  0.32388683  0.88364675    -0.73100
O222        O  0.62453017  0.32216237  0.83151834    -0.85200
Zr223      Zr  0.63050663  0.43734437  0.87055753     2.26400
Zr224      Zr  0.67519206  0.36633538  0.93366147     2.06300
Zr225      Zr  0.57270734  0.36164458  0.82586206     2.10000
Zr226      Zr  0.56924071  0.36872831  0.93323811     1.78800
O227        O  0.56346674  0.35449546  0.75984537    -0.94000
O228        O  0.58129371  0.37523152  0.99903476    -0.41800
O229        O  0.57434867  0.40330507  0.87634452    -0.78500
O230        O  0.62314296  0.40590714  0.92887817    -0.97200
O231        O  0.68184802  0.39838586  0.87681499    -0.90500
O232        O  0.62781348  0.39550119  0.82019283    -0.93300
C233        C  0.55272515  0.27470434  0.95266921     1.00400
C234        C  0.55887058  0.26563902  0.81991709     1.13400
C235        C  0.67887404  0.28286946  0.96433510     1.04200
O236        O  0.70975660  0.37467507  0.99097656    -0.95500
O237        O  0.68374675  0.42831202  0.95375856    -0.91200
O238        O  0.68405454  0.46309597  0.90249787    -0.84400
C239        C  0.69799376  0.45301196  0.93364716     1.10800
O240        O  0.70284372  0.29915447  0.80394714    -0.97400
Zr241      Zr  0.67956635  0.35744843  0.82655338     1.88900
O242        O  0.66974090  0.46408355  0.82499212    -0.74100
O243        O  0.73797526  0.35243332  0.92090595    -0.53300
O244        O  0.74433310  0.35509479  0.84015873    -0.98000
O245        O  0.67405092  0.35237430  0.75992663    -0.55200
O246        O  0.70325048  0.41677906  0.80339587    -0.74600
C247        C  0.69492666  0.45130076  0.80537388     0.97700
O248        O  0.60869471  0.49398427  0.89780630    -0.63400
O249        O  0.50789983  0.36626939  0.83473482    -0.58200
O250        O  0.59346865  0.46873946  0.82387384    -0.94900
O251        O  0.55988552  0.42261276  0.79719988    -0.93300
O252        O  0.50404961  0.36895085  0.92214140    -0.93700
O253        O  0.53904903  0.42291577  0.95668993    -0.92500
C254        C  0.57011860  0.45681198  0.80006168     1.16600
H255        H  0.54571343  0.31380967  0.88243866     0.32500
H256        H  0.62174910  0.42384660  0.94822296     0.43400
H257        H  0.62826265  0.40847715  0.79685813     0.36900
H258        H  0.69574408  0.30714358  0.88603224     0.33400
H259        H  0.57740189  0.35018835  0.00973132     0.25200
H260        H  0.75216780  0.37348256  0.93106140     0.31100
H261        H  0.75080503  0.38012458  0.84917944     0.37000
H262        H  0.49359408  0.36445308  0.94656874     0.31500
H263        H  0.50435439  0.39190921  0.84326481     0.30400
H264        H  0.53722624  0.35821295  0.75535516     0.32000
H265        H  0.66777886  0.37756289  0.75085332     0.31000
H266        H  0.54372735  0.44272861  0.93830164     0.35000
H267        H  0.61627748  0.49211997  0.92404308     0.27700
H268        H  0.63945160  0.21331715  0.89174885     0.32000
H269        H  0.72617869  0.30537198  0.79261426     0.34800
H270        H  0.49698228  0.36608795  0.80962716     0.27400
H271        H  0.62421184  0.51387627  0.88759418     0.40300
H272        H  0.69156237  0.38003013  0.00960519     0.30400
H273        H  0.60774356  0.37928634  0.00143077     0.38000
H274        H  0.65173231  0.33756403  0.75560959     0.29800
H275        H  0.74419050  0.33114353  0.93725261     0.29900
H276        H  0.66974071  0.23402605  0.86993914     0.30200
Zr277      Zr  0.30468114  0.08899402  0.88277823     2.17500
O278        O  0.24998730  0.11302386  0.85243182    -0.52200
O279        O  0.27344820  0.05253374  0.92970071    -0.75400
O280        O  0.27997871  0.04474711  0.83464425    -0.82200
O281        O  0.31872549  0.17760043  0.93982301    -0.83900
O282        O  0.32762641  0.01274257  0.81348137    -0.79600
O283        O  0.27518507  0.13785345  0.91779125    -0.91200
O284        O  0.31577016  0.02874736  0.96988440    -0.77200
O285        O  0.34074309  0.03573502  0.89554028    -0.86700
O286        O  0.33953807  0.09964056  0.93818480    -0.86300
O287        O  0.34422038  0.08672436  0.83153224    -0.73100
O288        O  0.34160558  0.14389700  0.87316141    -0.85200
Zr289      Zr  0.45300130  0.09680373  0.88741637     2.26400
Zr290      Zr  0.38045144  0.03350674  0.84549622     2.06300
Zr291      Zr  0.37722990  0.15264837  0.92853301     2.10000
Zr292      Zr  0.37578025  0.04701685  0.95012389     1.78800
O293        O  0.37856190  0.21897362  0.91530862    -0.94000
O294        O  0.37673171  0.97953185  0.95304256    -0.41800
O295        O  0.41440764  0.09984266  0.93979658    -0.78500
O296        O  0.41635732  0.04254019  0.90010578    -0.97200
O297        O  0.41743006  0.08659445  0.83313143    -0.90500
O298        O  0.41590952  0.14990132  0.87766249    -0.93300
C299        C  0.28297163  0.03390701  0.95873022     1.00400
C300        C  0.28588751  0.16679878  0.93567106     1.13400
C301        C  0.29424608  0.02086636  0.81282477     1.04200
O302        O  0.37002006  0.96925244  0.86381571    -0.95500
O303        O  0.43588882  0.00304734  0.83788858    -0.91200
O304        O  0.47727571  0.04941800  0.84514218    -0.84400
C305        C  0.46655968  0.01764025  0.83219674     1.10800
O306        O  0.33531004  0.16232760  0.77911648    -0.97400
Zr307      Zr  0.38181058  0.14021333  0.82260583     1.88900
O308        O  0.48416564  0.13997271  0.84574130    -0.74100
O309        O  0.39324655  0.02119204  0.78149304    -0.53300
O310        O  0.39001517  0.11911826  0.76004667    -0.98000
O311        O  0.37554184  0.20747304  0.82373356    -0.55200
O312        O  0.44134111  0.16194783  0.80518461    -0.74600
C313        C  0.47401763  0.15984694  0.81770131     0.97700
O314        O  0.50609851  0.06896111  0.91720985    -0.63400
O315        O  0.37515595  0.15741933  0.99517755    -0.58200
O316        O  0.48066450  0.14388893  0.92936073    -0.94900
O317        O  0.43425117  0.17539008  0.95423482    -0.93300
O318        O  0.37374022  0.07072306  0.01240680    -0.93700
O319        O  0.42382307  0.02196993  0.98984331    -0.92500
C320        C  0.46800984  0.16901485  0.95059867     1.16600
H321        H  0.32410013  0.10347139  0.95871683     0.32500
H322        H  0.43199831  0.02149031  0.90481169     0.43400
H323        H  0.43012601  0.17246554  0.87648286     0.36900
H324        H  0.33059069  0.08375606  0.80878037     0.33400
H325        H  0.35390141  0.97158040  0.94060456     0.25200
H326        H  0.38664623  0.99482395  0.77789732     0.31100
H327        H  0.41328837  0.10573005  0.76084986     0.37000
H328        H  0.36129943  0.05110159  0.02667143     0.31500
H329        H  0.37594448  0.18437479  0.99996135     0.30400
H330        H  0.38435106  0.23059372  0.93925536     0.32000
H331        H  0.39611548  0.21650604  0.83916559     0.31000
H332        H  0.44640055  0.02983433  0.97788059     0.35000
H333        H  0.50203443  0.07150411  0.94381759     0.27700
H334        H  0.23117941  0.09385202  0.85656230     0.32000
H335        H  0.34803914  0.17898675  0.76180532     0.34800
H336        H  0.35040689  0.14961298  0.00166301     0.27400
H337        H  0.50339845  0.04201963  0.91286307     0.40300
H338        H  0.37839550  0.95449630  0.84299339     0.30400
H339        H  0.39586631  0.97228799  0.93612885     0.38000
H340        H  0.35399106  0.21180909  0.83858440     0.29800
H341        H  0.37498879  0.03525873  0.76677827     0.29900
H342        H  0.25461633  0.11216553  0.82578900     0.30200
C343        C  0.50557969  0.22547192  0.02788013     0.79300
N344        N  0.48866023  0.19750325  0.00894399    -0.79000
C345        C  0.49282153  0.19389532  0.97196422     0.81800
N346        N  0.51413248  0.21877805  0.95401350    -0.78900
C347        C  0.53055716  0.24724678  0.97251027     0.81900
N348        N  0.52582492  0.25068188  0.00922063    -0.80600
C349        C  0.51853772  0.21190401  0.74315730     0.79300
N350        N  0.49963748  0.18525802  0.76133665    -0.79000
C351        C  0.50060679  0.18357399  0.79875571     0.81800
N352        N  0.52076027  0.20895374  0.81798584    -0.78900
C353        C  0.53928309  0.23610932  0.79983780     0.81900
N354        N  0.53750169  0.23772350  0.76257525    -0.80600
C355        C  0.54065662  0.99437004  0.77157971     0.79300
N356        N  0.52546989  0.96773149  0.74970090    -0.79000
C357        C  0.49169374  0.95519249  0.75671466     0.81800
N358        N  0.47342104  0.97051479  0.78485201    -0.78900
C359        C  0.48863285  0.99736400  0.80630901     0.81900
N360        N  0.52213317  0.00915423  0.79931769    -0.80600
C361        C  0.96582836  0.02763649  0.24986240     0.79300
N362        N  0.97927202  0.05427905  0.22739168    -0.79000
C363        C  0.01532922  0.05853585  0.22449038     0.81800
N364        N  0.03820438  0.03559318  0.24436901    -0.78900
C365        C  0.02475333  0.00847082  0.26684257     0.81900
N366        N  0.98838750  0.00497452  0.26963431    -0.80600
C367        C  0.24405400  0.24764632  0.97715924     0.79300
N368        N  0.22267541  0.23113110  0.00214510    -0.79000
C369        C  0.22000500  0.19373690  0.00424145     0.81800
N370        N  0.23867703  0.17243572  0.98087759    -0.78900
C371        C  0.25983635  0.18890839  0.95526037     0.81900
N372        N  0.26286569  0.22652443  0.95390536    -0.80600
C373        C  0.22760768  0.96327512  0.00670313     0.79300
N374        N  0.25332079  0.97956193  0.98577181    -0.79000
C375        C  0.25448539  0.01692650  0.98104958     0.81800
N376        N  0.23077802  0.03841258  0.99895156    -0.78900
C377        C  0.20509392  0.02256515  0.02036677     0.81900
N378        N  0.20322289  0.98490399  0.02374524    -0.80600
C379        C  0.27021078  0.01232795  0.23602475     0.79300
N380        N  0.25405573  0.03229003  0.20770640    -0.79000
C381        C  0.21734405  0.03018920  0.20221742     0.81800
N382        N  0.19756137  0.00781735  0.22485470    -0.78900
C383        C  0.21296448  0.98842607  0.25306856     0.81900
N384        N  0.24927526  0.99145450  0.25889946    -0.80600
C385        C  0.96404338  0.23554219  0.96018032     0.79300
N386        N  0.93923039  0.25715528  0.97656195    -0.79000
C387        C  0.93778077  0.25785693  0.01372567     0.81800
N388        N  0.96100875  0.23637152  0.03439391    -0.78900
C389        C  0.98626102  0.21522014  0.01856087     0.81900
N390        N  0.98817207  0.21554007  0.98123915    -0.80600
C391        C  0.98780559  0.26203874  0.26007117     0.79300
N392        N  0.97426888  0.29406454  0.24531618    -0.79000
C393        C  0.97912792  0.30242645  0.20938758     0.81800
N394        N  0.99813364  0.27846376  0.18841668    -0.78900
C395        C  0.01151980  0.24625496  0.20308175     0.81900
N396        N  0.00627497  0.23829807  0.23900404    -0.80600
Zr397      Zr  0.03524850  0.14445341  0.12307469     2.17500
O398        O  0.97189861  0.12986622  0.10963619    -0.52200
O399        O  0.01722370  0.19509013  0.16308145    -0.75400
O400        O  0.01337098  0.09966956  0.17100884    -0.82200
O401        O  0.04655563  0.19705541  0.03023657    -0.83900
O402        O  0.06105368  0.10009814  0.20960356    -0.79600
O403        O  0.00490327  0.18026654  0.07243834    -0.91200
O404        O  0.06804693  0.22544289  0.18329137    -0.77200
O405        O  0.07942742  0.14585552  0.17182905    -0.86700
O406        O  0.07705963  0.19374382  0.11091384    -0.86300
O407        O  0.06397351  0.08419389  0.12113106    -0.73100
O408        O  0.06295329  0.12946434  0.06569501    -0.85200
Zr409      Zr  0.17884025  0.11865757  0.10407164     2.26400
Zr410      Zr  0.10858615  0.08707281  0.17009031     2.06300
Zr411      Zr  0.10531136  0.17876618  0.05510818     2.10000
Zr412      Zr  0.12100229  0.19431219  0.15969564     1.78800
O413        O  0.10229807  0.17763097  0.98823127    -0.94000
O414        O  0.13039779  0.18795006  0.22600022    -0.41800
O415        O  0.15012989  0.17904125  0.10376189    -0.78500
O416        O  0.15157877  0.13549937  0.16061372    -0.97200
O417        O  0.13654144  0.07021448  0.11475333    -0.90500
O418        O  0.13489650  0.12008891  0.05450433    -0.93300
C419        C  0.03355130  0.22091141  0.18133260     1.00400
C420        C  0.01414164  0.19592549  0.04184248     1.13400
C421        C  0.02994689  0.08822944  0.20073705     1.04200
O422        O  0.12782006  0.08157236  0.23446765    -0.95500
O423        O  0.16289860  0.05632593  0.18637887    -0.91200
O424        O  0.20875073  0.07523313  0.15047950    -0.84400
C425        C  0.19586132  0.05566408  0.17742715     1.10800
O426        O  0.03810772  0.04036784  0.04378020    -0.97400
Zr427      Zr  0.09380830  0.07083067  0.06488528     1.88900
O428        O  0.19758678  0.07141398  0.06166696    -0.74100
O429        O  0.08467892  0.02405004  0.17491685    -0.53300
O430        O  0.08831280  0.00574921  0.08285978    -0.98000
O431        O  0.08428570  0.07761198  0.99854280    -0.55200
O432        O  0.14733231  0.04091049  0.04042622    -0.74600
C433        C  0.18173808  0.04636665  0.04220213     0.97700
O434        O  0.23833763  0.14324260  0.12122297    -0.63400
O435        O  0.10904526  0.24633661  0.05608684    -0.58200
O436        O  0.20578557  0.15179214  0.05242390    -0.94900
O437        O  0.16310043  0.19135830  0.02869091    -0.93300
O438        O  0.12877814  0.25923451  0.14185830    -0.93700
O439        O  0.17825556  0.22252286  0.17916461    -0.92500
C440        C  0.19485054  0.17752975  0.03008492     1.16600
H441        H  0.06476433  0.21723595  0.10848385     0.32500
H442        H  0.16959994  0.13526409  0.18033907     0.43400
H443        H  0.14615420  0.11694008  0.03115841     0.36900
H444        H  0.04675839  0.06457329  0.12552277     0.33400
H445        H  0.13508999  0.21344170  0.23479001     0.25200
H446        H  0.09646762  0.01049428  0.15513175     0.31100
H447        H  0.11344745  0.99697943  0.08657264     0.37000
H448        H  0.10443335  0.26776077  0.13380919     0.31500
H449        H  0.13509605  0.25215763  0.05952958     0.30400
H450        H  0.10307577  0.20403305  0.98042610     0.32000
H451        H  0.10844830  0.08290328  0.98860316     0.31000
H452        H  0.19508537  0.21654335  0.15943794     0.35000
H453        H  0.23592341  0.17045124  0.11829148     0.27700
H454        H  0.95852337  0.14200622  0.12930451     0.32000
H455        H  0.04540967  0.02280380  0.02469389     0.34800
H456        H  0.10311356  0.25436773  0.03054206     0.27400
H457        H  0.24074267  0.13926544  0.14811861     0.40300
H458        H  0.11533895  0.05921131  0.24403747     0.30400
H459        H  0.10628563  0.18149132  0.23546237     0.38000
H460        H  0.07092862  0.10113803  0.99516465     0.29800
H461        H  0.09592420  0.01375646  0.19778527     0.29900
H462        H  0.96921435  0.10295892  0.11465701     0.30200
Zr463      Zr  0.31668639  0.88030012  0.63135850     2.17500
O464        O  0.26042592  0.85048812  0.64921900    -0.52200
O465        O  0.29129056  0.92238747  0.58497991    -0.75400
O466        O  0.28628210  0.92224793  0.67691849    -0.82200
O467        O  0.33799110  0.81693954  0.55234098    -0.83900
O468        O  0.33126262  0.94479238  0.71407437    -0.79600
O469        O  0.29102891  0.84736076  0.57779601    -0.91200
O470        O  0.33902435  0.95460462  0.56210433    -0.77200
O471        O  0.35492999  0.93222291  0.64274708    -0.86700
O472        O  0.35995350  0.88311948  0.58335773    -0.86300
O473        O  0.34679380  0.86537287  0.68898339    -0.73100
O474        O  0.35152635  0.82319344  0.63314025    -0.85200
Zr475      Zr  0.46388740  0.86716221  0.65701455     2.26400
Zr476      Zr  0.38622614  0.91702968  0.69890759     2.06300
Zr477      Zr  0.39537607  0.82807515  0.58571162     2.10000
Zr478      Zr  0.39639767  0.93547688  0.59408821     1.78800
O479        O  0.39097359  0.76096586  0.58026688    -0.94000
O480        O  0.39192489  0.00102138  0.60851792    -0.41800
O481        O  0.43354208  0.88058237  0.59814778    -0.78500
O482        O  0.42890437  0.92344040  0.65139321    -0.97200
O483        O  0.42102589  0.86175181  0.70428689    -0.90500
O484        O  0.42534470  0.81528137  0.64319780    -0.93300
C485        C  0.30491836  0.94616450  0.56270551     1.00400
C486        C  0.30449565  0.82656268  0.55314878     1.13400
C487        C  0.29816867  0.94242579  0.70428322     1.04200
O488        O  0.39869075  0.98336329  0.70247491    -0.95500
O489        O  0.43736125  0.93270344  0.73514519    -0.91200
O490        O  0.48631313  0.91155522  0.70570951    -0.84400
C491        C  0.47121171  0.93094264  0.73089085     1.10800
O492        O  0.33058190  0.77347721  0.70895418    -0.97400
Zr493      Zr  0.38290038  0.81011891  0.69062921     1.88900
O494        O  0.48723649  0.81485762  0.69554639    -0.74100
O495        O  0.37399338  0.90505326  0.76353541    -0.53300
O496        O  0.37324149  0.81527641  0.75636927    -0.98000
O497        O  0.38037341  0.74570230  0.67120302    -0.55200
O498        O  0.43851766  0.78316031  0.71687952    -0.74600
C499        C  0.47283107  0.78820498  0.71436894     0.97700
O500        O  0.52261249  0.89355629  0.64199782    -0.63400
O501        O  0.40824728  0.83656238  0.52082967    -0.58200
O502        O  0.49907311  0.83133769  0.61319261    -0.94900
O503        O  0.45725637  0.81015437  0.57129808    -0.93300
O504        O  0.41219961  0.92721101  0.53020776    -0.93700
O505        O  0.44668053  0.97537531  0.57664733    -0.92500
C506        C  0.49006274  0.81342020  0.58387747     1.16600
H507        H  0.34871870  0.88566434  0.55927597     0.32500
H508        H  0.44444404  0.94449702  0.65625335     0.43400
H509        H  0.43923643  0.79271039  0.64162100     0.36900
H510        H  0.32915090  0.86379523  0.70809739     0.33400
H511        H  0.36767783  0.00368452  0.61898148     0.25200
H512        H  0.37209192  0.92981123  0.77467118     0.31100
H513        H  0.39734917  0.81172369  0.76827186     0.37000
H514        H  0.39912689  0.94706948  0.51648903     0.31500
H515        H  0.40466415  0.81170750  0.51002416     0.30400
H516        H  0.39995780  0.75575370  0.55550232     0.32000
H517        H  0.40535103  0.73951616  0.66454669     0.31000
H518        H  0.46836504  0.95976456  0.58056045     0.35000
H519        H  0.51920659  0.92076260  0.64214284     0.27700
H520        H  0.24129127  0.86779627  0.64054016     0.32000
H521        H  0.33920945  0.75768144  0.72979598     0.34800
H522        H  0.38798007  0.85148711  0.51051056     0.27400
H523        H  0.53855106  0.88816279  0.66365184     0.40300
H524        H  0.37676300  0.99563853  0.69220185     0.30400
H525        H  0.40893741  0.00479597  0.62960227     0.38000
H526        H  0.36660325  0.74627062  0.64752759     0.29800
H527        H  0.34916857  0.89467562  0.76409660     0.31500
H528        H  0.26040162  0.85210515  0.67634136     0.30200
Zr529      Zr  0.13361744  0.88822574  0.44522596     2.17500
O530        O  0.11227196  0.90861409  0.50429401    -0.52200
O531        O  0.18176460  0.84896249  0.46965236    -0.75400
O532        O  0.08899454  0.84005255  0.46802362    -0.82200
O533        O  0.20421229  0.96322045  0.43400933    -0.83900
O534        O  0.06973461  0.80685935  0.41878696    -0.79600
O535        O  0.18162537  0.92428967  0.47770649    -0.91200
O536        O  0.20960853  0.82728758  0.41929650    -0.77200
O537        O  0.12952446  0.83934340  0.40197131    -0.86700
O538        O  0.18237432  0.89575660  0.40372264    -0.86300
O539        O  0.07657541  0.89854736  0.41348075    -0.73100
O540        O  0.12694620  0.94838083  0.41493485    -0.85200
Zr541      Zr  0.11238137  0.91284723  0.29655066     2.26400
Zr542      Zr  0.07352982  0.84999040  0.36955414     2.06300
Zr543      Zr  0.17560808  0.95373561  0.37300545     2.10000
Zr544      Zr  0.17841291  0.84687851  0.36170187     1.78800
O545        O  0.16809174  0.02046351  0.37750744    -0.94000
O546        O  0.17112166  0.77980612  0.35874577    -0.41800
O547        O  0.16984641  0.90461924  0.32928132    -0.78500
O548        O  0.12195401  0.85374607  0.32734060    -0.97200
O549        O  0.06426919  0.90767780  0.33816541    -0.90500
O550        O  0.11940986  0.96248067  0.33969429    -0.93300
C551        C  0.20700637  0.83115431  0.45433365     1.00400
C552        C  0.20371743  0.94994646  0.46708193     1.13400
C553        C  0.07035943  0.81315109  0.45299140     1.04200
O554        O  0.06338239  0.78556913  0.35251831    -0.95500
O555        O  0.03879629  0.83754327  0.31564487    -0.91200
O556        O  0.06809437  0.86558165  0.26872662    -0.84400
C557        C  0.04390795  0.84257426  0.28157915     1.10800
O558        O  0.04399944  0.97964854  0.43642503    -0.97400
Zr559      Zr  0.07073697  0.95680201  0.38073285     1.88900
O560        O  0.07028836  0.96186700  0.27507668    -0.74100
O561        O  0.01256153  0.85957033  0.39138745    -0.53300
O562        O  0.00597281  0.94402714  0.38059615    -0.98000
O563        O  0.08062188  0.02267712  0.39160734    -0.55200
O564        O  0.04494682  0.98662397  0.32533771    -0.74600
C565        C  0.04863198  0.98443606  0.29041847     0.97700
O566        O  0.12685256  0.90046869  0.23301283    -0.63400
O567        O  0.24072123  0.96259478  0.36820075    -0.58200
O568        O  0.16047714  0.95205388  0.26887510    -0.94900
O569        O  0.20057724  0.97017384  0.31389033    -0.93300
O570        O  0.24119639  0.86437636  0.35200597    -0.93700
O571        O  0.20532926  0.81737523  0.30936930    -0.92500
C572        C  0.18989507  0.96859143  0.28012231     1.16600
H573        H  0.20573743  0.89548497  0.41607854     0.32500
H574        H  0.11977696  0.83398853  0.30980516     0.43400
H575        H  0.11935885  0.98617117  0.32726654     0.36900
H576        H  0.05727358  0.89616726  0.43080361     0.33400
H577        H  0.17020988  0.77136026  0.38468455     0.25200
H578        H  0.99737476  0.86356642  0.36891962     0.31100
H579        H  0.99441500  0.96842472  0.37628270     0.37000
H580        H  0.24007512  0.88832053  0.33843497     0.31500
H581        H  0.24595497  0.98712199  0.37912274     0.30400
H582        H  0.18670515  0.02832638  0.39588682     0.32000
H583        H  0.05742049  0.03450189  0.38429250     0.31000
H584        H  0.19229197  0.82806246  0.28767585     0.35000
H585        H  0.12879250  0.87316836  0.23160779     0.27700
H586        H  0.12123948  0.88965896  0.52215146     0.32000
H587        H  0.05871879  0.96843640  0.45671711     0.34800
H588        H  0.25183737  0.94445002  0.38563762     0.27400
H589        H  0.10461333  0.90668597  0.21857686     0.40300
H590        H  0.08203997  0.78017438  0.33440128     0.30400
H591        H  0.14624013  0.77591587  0.34887735     0.38000
H592        H  0.09749456  0.03093336  0.37249077     0.29800
H593        H  0.00466839  0.83514211  0.40107286     0.29900
H594        H  0.08575492  0.90474034  0.50301512     0.30200
C595        C  0.01439360  0.77373430  0.52753640     0.79300
N596        N  0.04021388  0.79388814  0.51014108    -0.79000
C597        C  0.04579089  0.78848839  0.47415929     0.81800
N598        N  0.02531107  0.76236849  0.45614052    -0.78900
C599        C  0.99956998  0.74177298  0.47362529     0.81900
N600        N  0.99395634  0.74795342  0.50941679    -0.80600
C601        C  0.25940147  0.02314814  0.51167962     0.79300
N602        N  0.28251868  0.00349354  0.53385528    -0.79000
C603        C  0.27947149  0.96602634  0.53694860     0.81800
N604        N  0.25272814  0.94782370  0.51700989    -0.78900
C605        C  0.22988963  0.96750897  0.49377961     0.81900
N606        N  0.23374316  0.00486313  0.49155354    -0.80600
C607        C  0.26590613  0.75699816  0.49026479     0.79300
N608        N  0.24024173  0.77598194  0.47106935    -0.79000
C609        C  0.23422091  0.81208240  0.47798397     0.81800
N610        N  0.25400093  0.82945976  0.50534938    -0.78900
C611        C  0.28045311  0.81014790  0.52443646     0.81900
N612        N  0.28618906  0.77420507  0.51635109    -0.80600
C613        C  0.99719745  0.79472801  0.20198286     0.79300
N614        N  0.98002513  0.76620509  0.21973378    -0.79000
C615        C  0.98268846  0.76293896  0.25666874     0.81800
N616        N  0.00297862  0.78868041  0.27542767    -0.78900
C617        C  0.02066143  0.81726035  0.25828118     0.81900
N618        N  0.01768115  0.82012012  0.22114218    -0.80600
C619        C  0.21950445  0.98349427  0.75255462     0.79300
N620        N  0.23699139  0.00169856  0.78052936    -0.79000
C621        C  0.27339697  0.00164611  0.78298977     0.81800
N622        N  0.29184716  0.98290129  0.75726928    -0.78900
C623        C  0.27494491  0.96447469  0.72901154     0.81900
N624        N  0.23832785  0.96489889  0.72671112    -0.80600
C625        C  0.74177931  0.21353085  0.00468728     0.79300
N626        N  0.76538431  0.23527102  0.02413859    -0.79000
C627        C  0.76064284  0.27255736  0.02464155     0.81800
N628        N  0.73218551  0.28781717  0.00562403    -0.78900
C629        C  0.70844773  0.26597910  0.98624151     0.81900
N630        N  0.71360497  0.22903711  0.98564863    -0.80600
C631        C  0.50540663  0.72081038  0.78633274     0.79300
N632        N  0.53507456  0.70668181  0.77075891    -0.79000
C633        C  0.54625561  0.71951702  0.73806321     0.81800
N634        N  0.52711039  0.74709678  0.72012159    -0.78900
C635        C  0.49645826  0.76093687  0.73485630     0.81900
N636        N  0.48587952  0.74750446  0.76806119    -0.80600
C637        C  0.53597353  0.78549810  0.50014812     0.79300
N638        N  0.56579237  0.76756453  0.51285538    -0.79000
C639        C  0.57271877  0.76439469  0.54927137     0.81800
N640        N  0.54912937  0.77996519  0.57342127    -0.78900
C641        C  0.51840375  0.79743716  0.56034864     0.81900
N642        N  0.51220255  0.79959900  0.52362744    -0.80600
C643        C  0.81617412  0.77236420  0.53529658     0.79300
N644        N  0.78740878  0.75697528  0.55192772    -0.79000
C645        C  0.77256930  0.72490835  0.53989846     0.81800
N646        N  0.78706752  0.70760225  0.51042695    -0.78900
C647        C  0.81660818  0.72328008  0.49412668     0.81900
N648        N  0.83071330  0.75521718  0.50675806    -0.80600
C649        C  0.50021670  0.50386517  0.74282945     0.79300
N650        N  0.51993802  0.52791297  0.72252887    -0.79000
C651        C  0.55614209  0.53098084  0.72846605     0.81800
N652        N  0.57287238  0.50916535  0.75479482    -0.78900
C653        C  0.55311099  0.48380249  0.77422616     0.81900
N654        N  0.51691339  0.48171013  0.76826164    -0.80600
C655        C  0.77111191  0.49778449  0.75893275     0.79300
N656        N  0.75362082  0.52548125  0.74050472    -0.79000
C657        C  0.71761403  0.53052294  0.74401471     0.81800
N658        N  0.69853582  0.50689642  0.76571465    -0.78900
C659        C  0.71563432  0.47820076  0.78349300     0.81900
N660        N  0.75188787  0.47388201  0.78016295    -0.80600
C661        C  0.77510024  0.52134116  0.49795436     0.79300
N662        N  0.80160569  0.54069047  0.48131990    -0.79000
C663        C  0.80164422  0.57821952  0.48034928     0.81800
N664        N  0.77396786  0.59702420  0.49608919    -0.78900
C665        C  0.74699863  0.57753600  0.51317805     0.81900
N666        N  0.74807065  0.53984236  0.51388516    -0.80600
C667        C  0.76333691  0.52606123  0.24090931     0.79300
N668        N  0.78347620  0.55514678  0.25273213    -0.79000
C669        C  0.81949556  0.55712682  0.24749305     0.81800
N670        N  0.83605056  0.52845556  0.23043318    -0.78900
C671        C  0.81567269  0.49908061  0.21774502     0.81900
N672        N  0.77946502  0.49814977  0.22320551    -0.80600
Zr673      Zr  0.12068747  0.31561673  0.61468190     2.17500
O674        O  0.14161154  0.25383969  0.63185225    -0.52200
O675        O  0.06964631  0.29367456  0.57731269    -0.75400
O676        O  0.07167695  0.28702732  0.64990888    -0.82200
O677        O  0.20914729  0.33078198  0.57399640    -0.83900
O678        O  0.05145797  0.33037939  0.68941269    -0.79600
O679        O  0.16073157  0.29433795  0.56429885    -0.91200
O680        O  0.04530520  0.34507469  0.54992587    -0.77200
O681        O  0.07273074  0.35905272  0.61792506    -0.86700
O682        O  0.12784881  0.35955093  0.56582746    -0.86300
O683        O  0.12539167  0.34442231  0.67449654    -0.73100
O684        O  0.17781010  0.34539559  0.62936939    -0.85200
Zr685      Zr  0.14262043  0.46371801  0.63995306     2.26400
Zr686      Zr  0.07814516  0.38943449  0.67548353     2.06300
Zr687      Zr  0.18376726  0.39011231  0.58088494     2.10000
Zr688      Zr  0.07912539  0.40145004  0.56895175     1.78800
O689        O  0.24342979  0.38497492  0.55455564    -0.94000
O690        O  0.01546679  0.41411668  0.57832170    -0.41800
O691        O  0.13569739  0.43394364  0.58090105    -0.78500
O692        O  0.08491574  0.43356126  0.62628450    -0.97200
O693        O  0.13407527  0.42008727  0.68912518    -0.90500
O694        O  0.19016163  0.41939044  0.63962667    -0.93300
C695        C  0.04589973  0.30978777  0.55653990     1.00400
C696        C  0.19277637  0.30591444  0.55575156     1.13400
C697        C  0.05110594  0.29799015  0.67560130     1.04200
O698        O  0.01232069  0.39044095  0.67545399    -0.95500
O699        O  0.05388779  0.44795672  0.69322454    -0.91200
O700        O  0.09337989  0.49305308  0.67534203    -0.84400
C701        C  0.06422682  0.48179269  0.69131019     1.10800
O702        O  0.19693372  0.31586860  0.71534637    -0.97400
Zr703      Zr  0.18134947  0.37588854  0.68784275     1.88900
O704        O  0.18634703  0.48161933  0.68970439    -0.74100
O705        O  0.08310392  0.38613621  0.74231009    -0.53300
O706        O  0.16421320  0.37179738  0.75191470    -0.98000
O707        O  0.24647254  0.36616609  0.68705158    -0.55200
O708        O  0.21060441  0.42959729  0.71620113    -0.74600
C709        C  0.20771721  0.46497246  0.71315373     0.97700
O710        O  0.13395255  0.53013663  0.63107994    -0.63400
O711        O  0.16867726  0.40354583  0.51646872    -0.58200
O712        O  0.18063566  0.48723952  0.58756508    -0.94900
O713        O  0.22174533  0.44252045  0.58370525    -0.93300
O714        O  0.08776661  0.40019109  0.50290235    -0.93700
O715        O  0.06250730  0.45844607  0.53630598    -0.92500
C716        C  0.20920123  0.47331562  0.57314810     1.16600
H717        H  0.12767428  0.34834482  0.54193529     0.32500
H718        H  0.06569325  0.45150268  0.62569684     0.43400
H719        H  0.21336691  0.43094824  0.64435838     0.36900
H720        H  0.12187587  0.32584505  0.69346589     0.33400
H721        H  0.00405179  0.41330397  0.55343813     0.25200
H722        H  0.09224772  0.41084996  0.74983315     0.31100
H723        H  0.18631874  0.37881654  0.76617960     0.37000
H724        H  0.06400164  0.39245227  0.49232051     0.31500
H725        H  0.18337369  0.42563854  0.51007366     0.30400
H726        H  0.24012145  0.39006741  0.52791795     0.32000
H727        H  0.25631447  0.38776620  0.67346398     0.31000
H728        H  0.08362923  0.47514897  0.53996615     0.35000
H729        H  0.15841259  0.54120113  0.63397889     0.27700
H730        H  0.12032371  0.23747277  0.62765712     0.32000
H731        H  0.21583519  0.32107017  0.73438087     0.34800
H732        H  0.17931123  0.38305321  0.50263346     0.27400
H733        H  0.12749878  0.53335152  0.60467362     0.40300
H734        H  0.00520351  0.40873575  0.65614847     0.30400
H735        H  0.00618103  0.39159644  0.59086624     0.38000
H736        H  0.24961027  0.34501577  0.67041045     0.29800
H737        H  0.05776912  0.38546551  0.75039922     0.29900
H738        H  0.14490287  0.25456282  0.65890260     0.30200
Zr739      Zr  0.62470662  0.20463546  0.38505578     2.17500
O740        O  0.64999689  0.25976159  0.35576240    -0.52200
O741        O  0.58259922  0.23286823  0.42670578    -0.75400
O742        O  0.57826522  0.23361091  0.34450725    -0.82200
O743        O  0.70776712  0.18742700  0.44743847    -0.83900
O744        O  0.54868139  0.18803555  0.31249299    -0.79600
O745        O  0.67303588  0.23479650  0.42550252    -0.91200
O746        O  0.55845874  0.18581761  0.46069678    -0.77200
O747        O  0.57247658  0.16487210  0.38568811    -0.86700
O748        O  0.62963061  0.16562986  0.43806056    -0.86300
O749        O  0.62440509  0.16806163  0.32957190    -0.73100
O750        O  0.67829689  0.16907283  0.37605307    -0.85200
Zr751      Zr  0.63011229  0.05250207  0.37752480     2.26400
Zr752      Zr  0.57213145  0.12823634  0.33155196     2.06300
Zr753      Zr  0.68198578  0.12980388  0.42852663     2.10000
Zr754      Zr  0.57777944  0.12633764  0.43872820     1.78800
O755        O  0.74612100  0.12653913  0.41614842    -0.94000
O756        O  0.51190481  0.12469834  0.43646521    -0.41800
O757        O  0.63040584  0.08981899  0.43175688    -0.78500
O758        O  0.57602633  0.08851309  0.38470114    -0.97200
O759        O  0.62494487  0.09221376  0.32472781    -0.90500
O760        O  0.68288558  0.09149218  0.37568822    -0.93300
C761        C  0.56211358  0.22014826  0.45198205     1.00400
C762        C  0.70044568  0.22183523  0.44476363     1.13400
C763        C  0.55441242  0.22207867  0.32069892     1.04200
O764        O  0.50762412  0.12194065  0.34184084    -0.95500
O765        O  0.55221160  0.06898161  0.30679660    -0.91200
O766        O  0.58773468  0.02318851  0.33137155    -0.84400
C767        C  0.56192839  0.03491016  0.30946113     1.10800
O768        O  0.70493501  0.18299472  0.29111313    -0.97400
Zr769      Zr  0.67712740  0.13059183  0.32280027     1.88900
O770        O  0.66630917  0.02370768  0.33146416    -0.74100
O771        O  0.56866263  0.13252137  0.26460111    -0.53300
O772        O  0.66133220  0.13218063  0.25743018    -0.98000
O773        O  0.74298222  0.13302502  0.32798226    -0.55200
O774        O  0.69355932  0.07038363  0.29939849    -0.74600
C775        C  0.68633391  0.03604110  0.30576888     0.97700
O776        O  0.60343460  0.99620857  0.40341271    -0.63400
O777        O  0.69237808  0.12976176  0.49508720    -0.58200
O778        O  0.67111547  0.02420990  0.42666739    -0.94900
O779        O  0.69745415  0.07307698  0.45595504    -0.93300
O780        O  0.59735590  0.12291484  0.50299201    -0.93700
O781        O  0.55098860  0.07436222  0.47181736    -0.92500
C782        C  0.69190442  0.03862018  0.45219219     1.16600
H783        H  0.63207413  0.17981647  0.46035367     0.32500
H784        H  0.55522876  0.07227830  0.38525313     0.43400
H785        H  0.70461542  0.07683666  0.37555922     0.36900
H786        H  0.62228171  0.18454158  0.30854786     0.33400
H787        H  0.50471239  0.13225063  0.46127208     0.25200
H788        H  0.54313805  0.13851944  0.25843053     0.31100
H789        H  0.64815995  0.15568966  0.25322574     0.37000
H790        H  0.61897487  0.10690568  0.50330598     0.31500
H791        H  0.71884854  0.13275791  0.49879772     0.30400
H792        H  0.75793608  0.12348882  0.44066614     0.32000
H793        H  0.75014343  0.11060369  0.34224333     0.31000
H794        H  0.55265247  0.05320228  0.45491862     0.35000
H795        H  0.60440275  0.99987368  0.43032007     0.27700
H796        H  0.63402279  0.28028260  0.36264710     0.32000
H797        H  0.68806816  0.20380587  0.29432514     0.34800
H798        H  0.68206481  0.15318849  0.50385586     0.27400
H799        H  0.57734674  0.99764432  0.39683541     0.40300
H800        H  0.49649177  0.11908533  0.31700318     0.30400
H801        H  0.50482663  0.14582813  0.42027482     0.38000
H802        H  0.74853206  0.15390530  0.34465639     0.29800
H803        H  0.58230391  0.15528984  0.25809451     0.29900
H804        H  0.64518733  0.25639643  0.32912053     0.30200
C805        C  0.51394348  0.26154521  0.52856879     0.79300
N806        N  0.53730508  0.24092114  0.50941371    -0.79000
C807        C  0.54029729  0.24599659  0.47254869     0.81800
N808        N  0.51895119  0.27114911  0.45447065    -0.78900
C809        C  0.49466833  0.29103353  0.47329140     0.81900
N810        N  0.49227173  0.28614999  0.51020552    -0.80600
Zr811      Zr  0.45200210  0.38524923  0.38991328     2.17500
O812        O  0.50794425  0.41033559  0.41658368    -0.52200
O813        O  0.47638101  0.33989363  0.34760746    -0.75400
O814        O  0.47990379  0.33849096  0.43026903    -0.82200
O815        O  0.44084346  0.46784318  0.32669294    -0.83900
O816        O  0.43495230  0.30928550  0.46149150    -0.79600
O817        O  0.48485260  0.42951577  0.34894405    -0.91200
O818        O  0.42949672  0.31907567  0.31161938    -0.77200
O819        O  0.41093161  0.33362139  0.38845324    -0.86700
O820        O  0.41326554  0.39375390  0.33750569    -0.86300
O821        O  0.41837462  0.38603215  0.44635805    -0.73100
O822        O  0.42069892  0.44223387  0.40118975    -0.85200
Zr823      Zr  0.30598245  0.40022189  0.39944494     2.26400
Zr824      Zr  0.37658721  0.33492506  0.44323568     2.06300
Zr825      Zr  0.38216344  0.44988102  0.34863159     2.10000
Zr826      Zr  0.37302391  0.34213879  0.33566210     1.78800
O827        O  0.39301432  0.51613637  0.35533491    -0.94000
O828        O  0.36917221  0.27475701  0.34092090    -0.41800
O829        O  0.34068797  0.39863659  0.34427226    -0.78500
O830        O  0.33727615  0.34238067  0.39007674    -0.97200
O831        O  0.34454029  0.39098423  0.45241633    -0.90500
O832        O  0.34729850  0.45159304  0.40295205    -0.93300
C833        C  0.46318247  0.32032386  0.32105722     1.00400
C834        C  0.47387754  0.45736529  0.32889089     1.13400
C835        C  0.46826019  0.31450666  0.45364348     1.04200
O836        O  0.37324849  0.26751743  0.44120563    -0.95500
O837        O  0.31723724  0.31355786  0.46235292    -0.91200
O838        O  0.27492571  0.35402212  0.44001557    -0.84400
C839        C  0.28450569  0.32502247  0.45918102     1.10800
O840        O  0.44273591  0.46615869  0.48016113    -0.97400
Zr841      Zr  0.38532248  0.44198540  0.45576694     1.88900
O842        O  0.28212709  0.44359961  0.44394523    -0.74100
O843        O  0.37784333  0.33499813  0.51020434    -0.53300
O844        O  0.38964481  0.42229844  0.52003828    -0.98000
O845        O  0.38824431  0.50957285  0.45737166    -0.55200
O846        O  0.32858824  0.46257409  0.48166982    -0.74600
C847        C  0.29491148  0.46118134  0.47202943     0.97700
O848        O  0.24505134  0.38437022  0.37733046    -0.63400
O849        O  0.37375098  0.45544335  0.28217386    -0.58200
O850        O  0.28245702  0.43856719  0.34594525    -0.94900
O851        O  0.32678871  0.48036401  0.33379299    -0.93300
O852        O  0.36885819  0.35902037  0.27068582    -0.93700
O853        O  0.31970342  0.31705441  0.30387828    -0.92500
C854        C  0.29536646  0.46674603  0.32782807     1.16600
H855        H  0.42688550  0.39548850  0.31525846     0.32500
H856        H  0.32006976  0.32217123  0.38873380     0.43400
H857        H  0.33456360  0.47482032  0.40438803     0.36900
H858        H  0.43505995  0.38262269  0.46716671     0.33400
H859        H  0.37534114  0.26566953  0.31633244     0.25200
H860        H  0.37314414  0.30886186  0.51739292     0.31100
H861        H  0.41301821  0.40926153  0.52281785     0.37000
H862        H  0.39311745  0.36861667  0.26452482     0.31500
H863        H  0.39438566  0.44215726  0.27188093     0.30400
H864        H  0.39800089  0.51946376  0.38191891     0.32000
H865        H  0.38324168  0.51590411  0.48311216     0.31000
H866        H  0.29957363  0.33265323  0.31194091     0.35000
H867        H  0.24446527  0.35698108  0.37563810     0.27700
H868        H  0.52683869  0.39236642  0.41033501     0.32000
H869        H  0.43764544  0.47555728  0.50489413     0.34800
H870        H  0.35247243  0.43963350  0.27614871     0.27400
H871        H  0.22899126  0.39019728  0.39776781     0.40300
H872        H  0.35443063  0.26205728  0.42217630     0.30400
H873        H  0.39005084  0.26758719  0.35696751     0.38000
H874        H  0.36664451  0.51820949  0.44321637     0.29800
H875        H  0.40344237  0.33938825  0.51756846     0.29900
H876        H  0.50537280  0.40757792  0.44348100     0.30200
C877        C  0.55467045  0.49808734  0.28064308     0.79300
N878        N  0.53515895  0.47599936  0.30416101    -0.79000
C879        C  0.49849173  0.47966200  0.30488770     0.81800
N880        N  0.48243859  0.50459916  0.28162438    -0.78900
C881        C  0.50120536  0.52611036  0.25777383     0.81900
N882        N  0.53748565  0.52280777  0.25742415    -0.80600
C883        C  0.52844495  0.69708184  0.99744041     0.79300
N884        N  0.51064829  0.67863545  0.02430054    -0.79000
C885        C  0.51072513  0.69191955  0.05902288     0.81800
N886        N  0.52640984  0.72540467  0.06572763    -0.78900
C887        C  0.54417667  0.74424164  0.03875931     0.81900
N888        N  0.54519913  0.72991633  0.00468300    -0.80600
Zr889      Zr  0.32002039  0.60010302  0.13905175     2.17500
O890        O  0.25928164  0.61959194  0.15404795    -0.52200
O891        O  0.29630597  0.55847263  0.09208657    -0.75400
O892        O  0.29392089  0.64155444  0.09097369    -0.82200
O893        O  0.33769508  0.53387111  0.22177368    -0.83900
O894        O  0.33818212  0.68031561  0.07069388    -0.79600
O895        O  0.29204561  0.55988470  0.18757788    -0.91200
O896        O  0.34437679  0.53263141  0.06462552    -0.77200
O897        O  0.36158463  0.60532075  0.09017836    -0.86700
O898        O  0.35954100  0.54831077  0.14300444    -0.86300
O899        O  0.35142764  0.65870396  0.14699729    -0.73100
O900        O  0.35147422  0.60633527  0.19728105    -0.85200
Zr901      Zr  0.46631857  0.61813721  0.16157370     2.26400
Zr902      Zr  0.39427333  0.66194301  0.09879630     2.06300
Zr903      Zr  0.39277412  0.55586355  0.19917200     2.10000
Zr904      Zr  0.40073906  0.55383392  0.09449974     1.78800
O905        O  0.38782203  0.54376537  0.26484788    -0.94000
O906        O  0.40821955  0.56593982  0.02907405    -0.41800
O907        O  0.43518120  0.55976219  0.15133418    -0.78500
O908        O  0.43475535  0.61028663  0.10279215    -0.97200
O909        O  0.42555473  0.66928087  0.15626473    -0.90500
O910        O  0.42420163  0.61286068  0.20993109    -0.93300
C911        C  0.31027533  0.53791781  0.06780837     1.00400
C912        C  0.30442974  0.53903359  0.21438941     1.13400
C913        C  0.30568105  0.66838924  0.07067519     1.04200
O914        O  0.39321556  0.66914867  0.03212989    -0.95500
O915        O  0.45186721  0.68085644  0.07587034    -0.91200
O916        O  0.49614714  0.65627224  0.11325005    -0.84400
C917        C  0.48501857  0.67568761  0.08502144     1.10800
O918        O  0.32792343  0.68657599  0.22962839    -0.97400
Zr919      Zr  0.38381438  0.66361051  0.20471043     1.88900
O920        O  0.48662455  0.67028973  0.20008271    -0.74100
O921        O  0.39299592  0.72891238  0.10623575    -0.53300
O922        O  0.37534279  0.73008407  0.19623534    -0.98000
O923        O  0.38048340  0.65350638  0.27089642    -0.55200
O924        O  0.43804966  0.69321424  0.22910965    -0.74600
C925        C  0.47183829  0.69275649  0.22235509     0.97700
O926        O  0.52732614  0.59874230  0.14761860    -0.63400
O927        O  0.39721332  0.49011851  0.18524718    -0.58200
O928        O  0.49324913  0.57453131  0.20969551    -0.94900
O929        O  0.44678980  0.53917163  0.23013334    -0.93300
O930        O  0.40308716  0.48743403  0.10710989    -0.93700
O931        O  0.45190769  0.52159775  0.06935197    -0.92500
C932        C  0.47988022  0.54856852  0.23054177     1.16600
H933        H  0.34638393  0.52501543  0.14242809     0.32500
H934        H  0.45172538  0.61103024  0.08320035     0.43400
H935        H  0.43641226  0.61280904  0.23378783     0.36900
H936        H  0.33456907  0.67892997  0.14463000     0.33400
H937        H  0.38910293  0.58399856  0.02225774     0.25200
H938        H  0.41814224  0.73594298  0.11320616     0.31100
H939        H  0.39593395  0.73840970  0.18133582     0.37000
H940        H  0.38920741  0.47597347  0.08653757     0.31500
H941        H  0.42158498  0.48252365  0.19414756     0.30400
H942        H  0.39573306  0.56706981  0.27677495     0.32000
H943        H  0.40566659  0.64924617  0.27970215     0.31000
H944        H  0.47340023  0.53320387  0.08136193     0.35000
H945        H  0.54250617  0.60566490  0.16930183     0.27700
H946        H  0.24348718  0.60984745  0.13394923     0.32000
H947        H  0.30848090  0.67457786  0.21470706     0.34800
H948        H  0.38047844  0.47749139  0.20218327     0.27400
H949        H  0.52653591  0.57128400  0.14808895     0.40300
H950        H  0.40889484  0.64926837  0.02323016     0.30400
H951        H  0.43109130  0.58017144  0.02722141     0.38000
H952        H  0.36831592  0.62913820  0.27367605     0.29800
H953        H  0.38948583  0.73891303  0.08094053     0.29900
H954        H  0.25907203  0.64685844  0.15046334     0.30200
C955        C  0.24278888  0.54100815  0.50404266     0.79300
N956        N  0.22368092  0.52613301  0.53207872    -0.79000
C957        C  0.22800674  0.49004473  0.54151642     0.81800
N958        N  0.25093520  0.46863885  0.52186246    -0.78900
C959        C  0.26959216  0.48340839  0.49335350     0.81900
N960        N  0.26584672  0.51982329  0.48510424    -0.80600
Zr961      Zr  0.62214054  0.84975683  0.05113334     2.17500
O962        O  0.58590233  0.87025948  0.99799055    -0.52200
O963        O  0.67060398  0.81817701  0.02220792    -0.75400
O964        O  0.66319946  0.88926288  0.01610814    -0.82200
O965        O  0.54584614  0.79802133  0.07305729    -0.83900
O966        O  0.68743230  0.92851265  0.05885708    -0.79600
O967        O  0.58755840  0.79420391  0.03066975    -0.91200
O968        O  0.70402780  0.79073625  0.06829889    -0.77200
O969        O  0.67518034  0.86019201  0.08818200    -0.86700
O970        O  0.62950914  0.79800689  0.09228433    -0.86300
O971        O  0.61323637  0.90760181  0.08254473    -0.73100
O972        O  0.57009435  0.85077845  0.08911781    -0.85200
Zr973      Zr  0.61890410  0.86594185  0.19921964     2.26400
Zr974      Zr  0.66654059  0.91582949  0.12055329     2.06300
Zr975      Zr  0.57799817  0.79924323  0.13022466     2.10000
Zr976      Zr  0.68235442  0.80908522  0.12855530     1.78800
O977        O  0.51656137  0.77751752  0.14066408    -0.94000
O978        O  0.74590057  0.82714136  0.12724788    -0.41800
O979        O  0.63086150  0.80976408  0.16718386    -0.78500
O980        O  0.67315039  0.86477989  0.16299758    -0.97200
O981        O  0.61437426  0.91696795  0.15737508    -0.90500
O982        O  0.56591650  0.85542250  0.16215455    -0.93300
C983        C  0.69686994  0.79817736  0.03417271     1.00400
C984        C  0.55957952  0.78104727  0.04677170     1.13400
C985        C  0.68402790  0.91626725  0.02590086     1.04200
O986        O  0.73184174  0.92519124  0.12169495    -0.95500
O987        O  0.68535219  0.94219532  0.17893507    -0.91200
O988        O  0.65657745  0.91416020  0.22658227    -0.84400
C989        C  0.67849245  0.93814645  0.21313099     1.10800
O990        O  0.52076844  0.92090403  0.06908386    -0.97400
Zr991      Zr  0.56142637  0.90744754  0.12125507     1.88900
O992        O  0.58158368  0.91441770  0.22607843    -0.74100
O993        O  0.65510467  0.98193386  0.11334427    -0.53300
O994        O  0.56843144  0.97288462  0.10501330    -0.98000
O995        O  0.49705066  0.89611525  0.12923834    -0.55200
O996        O  0.54775460  0.93846451  0.17863083    -0.74600
C997        C  0.55799027  0.93731519  0.21269218     0.97700
O998        O  0.64550486  0.84026923  0.25592415    -0.63400
O999        O  0.59200493  0.73370046  0.12277181    -0.58200
O1000       O  0.57701039  0.82063443  0.22739493    -0.94900
O1001       O  0.57774204  0.77172495  0.18950595    -0.93300
O1002       O  0.67770375  0.74179331  0.13428460    -0.93700
O1003       O  0.71700745  0.78255608  0.18011129    -0.92500
C1004       C  0.56736951  0.78743405  0.21818851     1.16600
H1005       H  0.63187916  0.77509162  0.07927524     0.32500
H1006       H  0.69408035  0.86869280  0.17893957     0.43400
H1007       H  0.54440417  0.85333854  0.17637594     0.36900
H1008       H  0.61123817  0.92755157  0.06472816     0.33400
H1009       H  0.74830650  0.84129038  0.10393451     0.25200
H1010       H  0.67931580  0.99369503  0.11564522     0.31100
H1011       H  0.55297313  0.98625282  0.12214179     0.37000
H1012       H  0.68005373  0.73244847  0.10902334     0.31500
H1013       H  0.57038144  0.72008850  0.13125199     0.30400
H1014       H  0.50386924  0.79938447  0.15000562     0.32000
H1015       H  0.49324611  0.89775524  0.15596702     0.31000
H1016       H  0.71461740  0.80066258  0.20009053     0.35000
H1017       H  0.66991675  0.85153598  0.25836833     0.27700
H1018       H  0.59639165  0.89451430  0.99072563     0.32000
H1019       H  0.50897731  0.94461696  0.07480532     0.34800
H1020       H  0.59262756  0.72889694  0.09615556     0.27400
H1021       H  0.63158984  0.85142017  0.27577861     0.40300
H1022       H  0.74062069  0.91419774  0.14529878     0.30400
H1023       H  0.74899461  0.84597088  0.14661403     0.38000
H1024       H  0.49355670  0.86950870  0.12369589     0.29800
H1025       H  0.64791405  0.98544873  0.08716865     0.29900
H1026       H  0.56224893  0.87653948  0.00827728     0.30200
C1027       C  0.75145221  0.73096211  0.98469948     0.79300
N1028       N  0.76277891  0.75195277  0.95617548    -0.79000
C1029       C  0.75305813  0.78788118  0.95224229     0.81800
N1030       N  0.73160852  0.80326923  0.97761598    -0.78900
C1031       C  0.72007648  0.78226174  0.00659231     0.81900
N1032       N  0.73043078  0.74634621  0.01025616    -0.80600
Zr1033     Zr  0.87261401  0.20443962  0.60099669     2.17500
O1034       O  0.85079807  0.26367261  0.62242712    -0.52200
O1035       O  0.92302885  0.22845244  0.56570383    -0.75400
O1036       O  0.92015623  0.23043918  0.64259219    -0.82200
O1037       O  0.78993601  0.18887021  0.53589302    -0.83900
O1038       O  0.94948810  0.18159187  0.67024195    -0.79600
O1039       O  0.82810811  0.23479028  0.55492092    -0.91200
O1040       O  0.94704212  0.17883577  0.53731806    -0.77200
O1041       O  0.92090598  0.16064355  0.60066313    -0.86700
O1042       O  0.86247892  0.16424661  0.55044684    -0.86300
O1043       O  0.87229724  0.16917071  0.65845921    -0.73100
O1044       O  0.81686988  0.17299423  0.61491660    -0.85200
Zr1045     Zr  0.85197899  0.05319670  0.61924176     2.26400
Zr1046     Zr  0.91994983  0.12422108  0.65573196     2.06300
Zr1047     Zr  0.80775572  0.13235555  0.56461405     2.10000
Zr1048     Zr  0.91111897  0.12181172  0.55003423     1.78800
O1049       O  0.74474344  0.14672154  0.57536648    -0.94000
O1050       O  0.97392204  0.10222257  0.55590433    -0.41800
O1051       O  0.85560708  0.08841429  0.56227092    -0.78500
O1052       O  0.90895990  0.08371905  0.60508745    -0.97200
O1053       O  0.86470873  0.09328752  0.66956529    -0.90500
O1054       O  0.80453794  0.09741799  0.62064781    -0.93300
C1055       C  0.94695923  0.21357682  0.54578402     1.00400
C1056       C  0.80039575  0.22254461  0.53541077     1.13400
C1057       C  0.94491684  0.21617325  0.66406060     1.04200
O1058       O  0.98417262  0.11724815  0.64501236    -0.95500
O1059       O  0.94046510  0.06354521  0.67624382    -0.91200
O1060       O  0.89947131  0.02042070  0.65623829    -0.84400
C1061       C  0.92873778  0.03006835  0.67396716     1.10800
O1062       O  0.79526926  0.19240705  0.70010333    -0.97400
Zr1063     Zr  0.81719949  0.13677106  0.67102179     1.88900
O1064       O  0.81762427  0.02733484  0.67148056    -0.74100
O1065       O  0.92806814  0.12738525  0.72230482    -0.53300
O1066       O  0.84129033  0.14234031  0.73355532    -0.98000
O1067       O  0.75145813  0.14019152  0.67429669    -0.55200
O1068       O  0.79876871  0.07872807  0.70031968    -0.74600
C1069       C  0.80111376  0.04327534  0.69761726     0.97700
O1070       O  0.86283596  0.99050027  0.59814356    -0.63400
O1071       O  0.80304089  0.11977949  0.49902649    -0.58200
O1072       O  0.80282408  0.03074197  0.57618087    -0.94900
O1073       O  0.77320508  0.07953454  0.54940620    -0.93300
O1074       O  0.89533883  0.13079741  0.48513399    -0.93700
O1075       O  0.92419574  0.07177515  0.50824264    -0.92500
C1076       C  0.77794348  0.04505222  0.55464074     1.16600
H1077       H  0.86069830  0.17774275  0.52737659     0.32500
H1078       H  0.92786162  0.06549315  0.60407428     0.43400
H1079       H  0.78137239  0.08532365  0.62299644     0.36900
H1080       H  0.87708214  0.18572798  0.67871674     0.33400
H1081       H  0.98412731  0.10730388  0.53146824     0.25200
H1082       H  0.95455696  0.12621947  0.72675493     0.31100
H1083       H  0.85345935  0.11843700  0.73885746     0.37000
H1084       H  0.90353831  0.15630057  0.47910491     0.31500
H1085       H  0.80849146  0.14359005  0.48646040     0.30400
H1086       H  0.74558545  0.16763421  0.59272859     0.32000
H1087       H  0.74551429  0.12789551  0.69788380     0.31000
H1088       H  0.91289924  0.04952971  0.51944722     0.35000
H1089       H  0.84017182  0.97651944  0.60254856     0.27700
H1090       H  0.86907747  0.28206625  0.61445239     0.32000
H1091       H  0.80051099  0.21272899  0.68243461     0.34800
H1092       H  0.82407737  0.10398821  0.49409693     0.27400
H1093       H  0.86414163  0.99275094  0.57108640     0.40300
H1094       H  0.99594659  0.11841053  0.66971286     0.30400
H1095       H  0.98566314  0.12090749  0.57202119     0.38000
H1096       H  0.74174428  0.12318926  0.65528253     0.29800
H1097       H  0.92154540  0.15299956  0.72882600     0.29900
H1098       H  0.85387566  0.26233992  0.64950539     0.30200
C1099       C  0.73944026  0.02703590  0.77383517     0.79300
N1100       N  0.74366531  0.99083184  0.78291848    -0.79000
C1101       C  0.76652694  0.96932006  0.76446247     0.81800
N1102       N  0.78580544  0.98485154  0.73582402    -0.78900
C1103       C  0.78181451  0.02194026  0.72704142     0.81900
N1104       N  0.75846670  0.04206979  0.74632146    -0.80600
Zr1105     Zr  0.93243292  0.86730668  0.84127632     2.17500
O1106       O  0.98744841  0.89750631  0.86428452    -0.52200
O1107       O  0.95984103  0.81824302  0.80823532    -0.75400
O1108       O  0.96593911  0.82371270  0.88246094    -0.82200
O1109       O  0.90432763  0.92259170  0.75353755    -0.83900
O1110       O  0.92445203  0.80111243  0.92224156    -0.79600
O1111       O  0.95287815  0.91098098  0.79135068    -0.91200
O1112       O  0.91915813  0.77066249  0.80772694    -0.77200
O1113       O  0.89800327  0.81349327  0.85647855    -0.86700
O1114       O  0.89238325  0.85400947  0.79070935    -0.86300
O1115       O  0.90203129  0.88052651  0.89764303    -0.73100
O1116       O  0.89359065  0.92012123  0.83672723    -0.85200
Zr1117     Zr  0.78645350  0.87022456  0.85351013     2.26400
Zr1118     Zr  0.86553093  0.82697435  0.90954754     2.06300
Zr1119     Zr  0.85328805  0.90600876  0.78633085     2.10000
Zr1120     Zr  0.85892207  0.79997780  0.80660535     1.78800
O1121       O  0.85103391  0.97321138  0.77961269    -0.94000
O1122       O  0.84777099  0.73772041  0.83075097    -0.41800
O1123       O  0.81829376  0.85193538  0.79957317    -0.78500
O1124       O  0.82412280  0.81510324  0.85896687    -0.97200
O1125       O  0.82717226  0.87922336  0.90484353    -0.90500
O1126       O  0.82321399  0.92358094  0.84079025    -0.93300
C1127       C  0.95136822  0.78397352  0.80457905     1.00400
C1128       C  0.93733313  0.92645127  0.76260790     1.13400
C1129       C  0.95638061  0.80270114  0.90956210     1.04200
O1130       O  0.86658272  0.76401203  0.93462118    -0.95500
O1131       O  0.80890517  0.80698965  0.93380932    -0.91200
O1132       O  0.76032434  0.83037035  0.90157887    -0.84400
C1133       C  0.77491847  0.81062133  0.92770010     1.10800
O1134       O  0.91032398  0.97867579  0.89764817    -0.97400
Zr1135     Zr  0.86207597  0.93260100  0.89244098     1.88900
O1136       O  0.76010920  0.90535704  0.90243828    -0.74100
O1137       O  0.87582113  0.85026598  0.97142151    -0.53300
O1138       O  0.88470918  0.93538639  0.95575428    -0.98000
O1139       O  0.84423318  0.99693553  0.88168292    -0.55200
O1140       O  0.80583713  0.94105500  0.92609950    -0.74600
C1141       C  0.77292791  0.92890490  0.92551760     0.97700
O1142       O  0.72955401  0.84599770  0.82825187    -0.63400
O1143       O  0.85058191  0.89869179  0.71972643    -0.58200
O1144       O  0.76170803  0.92029062  0.81082641    -0.94900
O1145       O  0.79379288  0.91063998  0.76129661    -0.93300
O1146       O  0.86700265  0.79369002  0.74078037    -0.93700
O1147       O  0.81074996  0.76634617  0.77421370    -0.92500
C1148       C  0.77258696  0.93067057  0.77861285     1.16600
H1149       H  0.90529832  0.85059374  0.76831910     0.32500
H1150       H  0.80916211  0.79367422  0.86429999     0.43400
H1151       H  0.81089181  0.94695436  0.83780838     0.36900
H1152       H  0.91963543  0.88406603  0.91738491     0.33400
H1153       H  0.86019892  0.72109173  0.81381937     0.25200
H1154       H  0.85445655  0.84176679  0.98509633     0.31100
H1155       H  0.87185888  0.95656487  0.96631814     0.37000
H1156       H  0.89079843  0.78167467  0.73858903     0.31500
H1157       H  0.83247376  0.87889845  0.71475390     0.30400
H1158       H  0.87346954  0.98231433  0.79197715     0.32000
H1159       H  0.81754817  0.99716998  0.88299589     0.31000
H1160       H  0.78924014  0.76961374  0.78941914     0.35000
H1161       H  0.72929478  0.85350773  0.80199958     0.27700
H1162       H  0.98535988  0.89683402  0.89134625     0.32000
H1163       H  0.92934729  0.96972048  0.88141260     0.34800
H1164       H  0.83951590  0.92172369  0.70965038     0.27400
H1165       H  0.73289206  0.81879489  0.82801794     0.40300
H1166       H  0.85126821  0.74925414  0.91747322     0.30400
H1167       H  0.86248781  0.73635822  0.85380725     0.38000
H1168       H  0.84911106  0.00201071  0.85549713     0.29800
H1169       H  0.89597513  0.83517024  0.98175552     0.29900
H1170       H  0.98444753  0.92399987  0.85754699     0.30200
Zr1171     Zr  0.20599212  0.60260437  0.89659918     2.17500
O1172       O  0.26723764  0.61938500  0.87943427    -0.52200
O1173       O  0.22915677  0.55942733  0.94325367    -0.75400
O1174       O  0.23320251  0.64383527  0.94364866    -0.82200
O1175       O  0.18693628  0.52234234  0.83303544    -0.83900
O1176       O  0.18815457  0.68001280  0.96465648    -0.79600
O1177       O  0.22943359  0.56611715  0.84398207    -0.91200
O1178       O  0.18074862  0.53880946  0.97535750    -0.77200
O1179       O  0.16433635  0.61106715  0.94486639    -0.86700
O1180       O  0.16515563  0.55116723  0.89697715    -0.86300
O1181       O  0.17634088  0.66145603  0.88492004    -0.73100
O1182       O  0.17470747  0.60656758  0.83815662    -0.85200
Zr1183     Zr  0.06151245  0.61932891  0.87144587     2.26400
Zr1184     Zr  0.13272349  0.66724529  0.93220449     2.06300
Zr1185     Zr  0.13318087  0.55554047  0.83947959     2.10000
Zr1186     Zr  0.12409670  0.55990982  0.94489358     1.78800
O1187       O  0.14688237  0.55276105  0.77448487    -0.94000
O1188       O  0.11566195  0.57496359  0.00909785    -0.41800
O1189       O  0.09104334  0.56167965  0.88695740    -0.78500
O1190       O  0.09096885  0.61627875  0.93182332    -0.97200
O1191       O  0.10294405  0.67005144  0.87421036    -0.90500
O1192       O  0.10429176  0.61270966  0.82444550    -0.93300
C1193       C  0.21498441  0.54120139  0.96983667     1.00400
C1194       C  0.21678548  0.53773936  0.82605635     1.13400
C1195       C  0.22078597  0.66895587  0.96479204     1.04200
O1196       O  0.11725498  0.67066008  0.99666498    -0.95500
O1197       O  0.07659178  0.70080214  0.93370203    -0.91200
O1198       O  0.03182767  0.67163228  0.90076481    -0.84400
C1199       C  0.04396165  0.69805233  0.92127734     1.10800
O1200       O  0.19902106  0.67902191  0.79370622    -0.97400
Zr1201     Zr  0.14413374  0.66426925  0.82673305     1.88900
O1202       O  0.03829047  0.66987404  0.83432198    -0.74100
O1203       O  0.14438562  0.73386689  0.92883852    -0.53300
O1204       O  0.15957756  0.72927681  0.83664750    -0.98000
O1205       O  0.13867850  0.65655767  0.76028372    -0.55200
O1206       O  0.08793325  0.69646698  0.80891035    -0.74600
C1207       C  0.05367701  0.69458643  0.81456106     0.97700
O1208       O  0.00561089  0.59200483  0.89320873    -0.63400
O1209       O  0.11745351  0.48997175  0.84472079    -0.58200
O1210       O  0.03698849  0.58326268  0.81776102    -0.94900
O1211       O  0.08001423  0.54072047  0.80590270    -0.93300
O1212       O  0.11794843  0.49282579  0.93996872    -0.93700
O1213       O  0.06973357  0.53271172  0.97052237    -0.92500
C1214       C  0.04989804  0.55625027  0.79899595     1.16600
H1215       H  0.17772666  0.52778920  0.90002124     0.32500
H1216       H  0.07330355  0.61975466  0.95047726     0.43400
H1217       H  0.09337591  0.61270190  0.80007761     0.36900
H1218       H  0.19391486  0.68137102  0.88633001     0.33400
H1219       H  0.12277852  0.55222266  0.02292220     0.25200
H1220       H  0.14968792  0.74141788  0.95448706     0.31100
H1221       H  0.13630712  0.74147024  0.84134986     0.37000
H1222       H  0.14253774  0.48373706  0.93525697     0.31500
H1223       H  0.12413478  0.47925027  0.82095705     0.30400
H1224       H  0.14044452  0.52715268  0.76714021     0.32000
H1225       H  0.11287078  0.66071480  0.75375122     0.31000
H1226       H  0.05013063  0.54980161  0.96262571     0.35000
H1227       H  0.00711190  0.59505659  0.92018975     0.27700
H1228       H  0.28296704  0.60970998  0.89972185     0.32000
H1229       H  0.19438873  0.70309502  0.78113537     0.34800
H1230       H  0.13521855  0.47952628  0.86275628     0.27400
H1231       H  0.98656281  0.60948092  0.88471714     0.40300
H1232       H  0.11733714  0.69752189  0.00200457     0.30400
H1233       H  0.13508072  0.59311422  0.01502968     0.38000
H1234       H  0.14228843  0.62974514  0.75638724     0.29800
H1235       H  0.16771903  0.73661512  0.91639306     0.29900
H1236       H  0.26865489  0.64670167  0.88159847     0.30200
C1237       C  0.01871882  0.75501912  0.74069464     0.79300
N1238       N  0.98933166  0.76976520  0.75557981    -0.79000
C1239       C  0.97977938  0.76091777  0.78990342     0.81800
N1240       N  0.00048818  0.73662046  0.81039198    -0.78900
C1241       C  0.03058342  0.72166028  0.79517328     0.81900
N1242       N  0.03953351  0.73122684  0.76052946    -0.80600
C1243       C  0.98203034  0.52198009  0.73031650     0.79300
N1244       N  0.00422482  0.50547871  0.70615935    -0.79000
C1245       C  0.04082666  0.50793155  0.71068962     0.81800
N1246       N  0.05455272  0.52590564  0.74036721    -0.78900
C1247       C  0.03265111  0.54211956  0.76504658     0.81900
N1248       N  0.99632880  0.53981510  0.76014315    -0.80600
C1249       C  0.28741664  0.50440691  0.76465803     0.79300
N1250       N  0.27112932  0.52191658  0.79250875    -0.79000
C1251       C  0.23481743  0.52206497  0.79427656     0.81800
N1252       N  0.21445623  0.50463616  0.76767314    -0.78900
C1253       C  0.23020523  0.48745525  0.73924780     0.81900
N1254       N  0.26698194  0.48687019  0.73821339    -0.80600
C1255       C  0.73956730  0.96411631  0.50603885     0.79300
N1256       N  0.71728598  0.98015923  0.47997608    -0.79000
C1257       C  0.71257657  0.01737107  0.48066828     0.81800
N1258       N  0.73113336  0.03760450  0.50654408    -0.78900
C1259       C  0.75388742  0.02167309  0.53174931     0.81900
N1260       N  0.75803801  0.98497084  0.53113757    -0.80600
C1261       C  0.00259722  0.26325328  0.47734494     0.79300
N1262       N  0.97913374  0.23914567  0.49322550    -0.79000
C1263       C  0.97528489  0.23839537  0.53020305     0.81800
N1264       N  0.99616588  0.26177104  0.55168585    -0.78900
C1265       C  0.02016097  0.28584238  0.53558040     0.81900
N1266       N  0.02264176  0.28645420  0.49868350    -0.80600
C1267       C  0.99557332  0.25119030  0.74444884     0.79300
N1268       N  0.96900670  0.23603597  0.72294072    -0.79000
C1269       C  0.96954622  0.23963601  0.68569718     0.81800
N1270       N  0.99767560  0.25755306  0.66969821    -0.78900
C1271       C  0.02439394  0.27278256  0.69117347     0.81900
N1272       N  0.02290171  0.26989980  0.72828456    -0.80600
C1273       C  0.50348852  0.76237347  0.29013973     0.79300
N1274       N  0.48486052  0.73388409  0.27424382    -0.79000
C1275       C  0.49440414  0.72117191  0.24091563     0.81800
N1276       N  0.52251724  0.73753121  0.22351001    -0.78900
C1277       C  0.54063859  0.76669002  0.23910304     0.81900
N1278       N  0.53088025  0.77893463  0.27207800    -0.80600
C1279       C  0.75549813  0.98848826  0.25377161     0.79300
N1280       N  0.73528213  0.96426623  0.23388810    -0.79000
C1281       C  0.69913372  0.96192663  0.23810935     0.81800
N1282       N  0.68276785  0.98423412  0.26245061    -0.78900
C1283       C  0.70305502  0.00919953  0.28197047     0.81900
N1284       N  0.73915608  0.01142056  0.27723368    -0.80600
C1285       C  0.26081621  0.74454211  0.01940526     0.79300
N1286       N  0.28071738  0.72546339  0.04502140    -0.79000
C1287       C  0.28118485  0.68772578  0.04496294     0.81800
N1288       N  0.26340180  0.66893712  0.01773599    -0.78900
C1289       C  0.24439839  0.68804078  0.99132763     0.81900
N1290       N  0.24237565  0.72561486  0.99295370    -0.80600
C1291       C  0.74972847  0.30200013  0.48991738     0.79300
N1292       N  0.77541860  0.28338699  0.51074770    -0.79000
C1293       C  0.77676045  0.24582081  0.50999332     0.81800
N1294       N  0.75227975  0.22761509  0.48789966    -0.78900
C1295       C  0.72648600  0.24537943  0.46695374     0.81900
N1296       N  0.72508961  0.28292654  0.46837236    -0.80600
C1297       C  0.22397681  0.50091984  0.26120932     0.79300
N1298       N  0.23949367  0.48376632  0.29135552    -0.79000
C1299       C  0.27594006  0.48439733  0.29601014     0.81800
N1300       N  0.29608456  0.50245205  0.27054154    -0.78900
C1301       C  0.28078600  0.51950090  0.24047006     0.81900
N1302       N  0.24461484  0.51869244  0.23596903    -0.80600
C1303       C  0.26432450  0.46333716  0.01500991     0.79300
N1304       N  0.24112376  0.48305874  0.99292212    -0.79000
C1305       C  0.23976581  0.52054163  0.99500062     0.81800
N1306       N  0.26205250  0.53852070  0.01949421    -0.78900
C1307       C  0.28549791  0.51889311  0.04171274     0.81900
N1308       N  0.28652467  0.48139600  0.03926674    -0.80600
C1309       C  0.48710563  0.99735655  0.24995363     0.79300
N1310       N  0.50563602  0.01588465  0.27695555    -0.79000
C1311       C  0.54137130  0.00883469  0.28462885     0.81800
N1312       N  0.55853105  0.98240516  0.26479950    -0.78900
C1313       C  0.54011116  0.96388212  0.23733725     0.81900
N1314       N  0.50484791  0.97213735  0.22994671    -0.80600
C1315       C  0.50376115  0.26871096  0.24447229     0.79300
N1316       N  0.52684260  0.24605352  0.26360060    -0.79000
C1317       C  0.53161510  0.24921837  0.30061365     0.81800
N1318       N  0.51214279  0.27454445  0.31897201    -0.78900
C1319       C  0.48787250  0.29655257  0.30043736     0.81900
N1320       N  0.48389470  0.29360045  0.26317606    -0.80600
C1321       C  0.23490492  0.24117463  0.49165716     0.79300
N1322       N  0.21268864  0.25498411  0.51711340    -0.79000
C1323       C  0.21260311  0.29175364  0.52391026     0.81800
N1324       N  0.23493894  0.31502857  0.50438291    -0.78900
C1325       C  0.25681467  0.30144153  0.47803772     0.81900
N1326       N  0.25721610  0.26419340  0.47273120    -0.80600
C1327       C  0.00123519  0.75673941  0.98838923     0.79300
N1328       N  0.01941779  0.72928420  0.97240891    -0.79000
C1329       C  0.01942675  0.72596074  0.93547089     0.81800
N1330       N  0.00094175  0.75106595  0.91369073    -0.78900
C1331       C  0.98269393  0.77922951  0.92986190     0.81900
N1332       N  0.98283874  0.78147833  0.96706539    -0.80600
C1333       C  0.72566142  0.99663109  0.98154203     0.79300
N1334       N  0.70419906  0.97468405  0.00190568    -0.79000
C1335       C  0.70418915  0.93751401  0.99829089     0.81800
N1336       N  0.72601102  0.92180570  0.97310389    -0.78900
C1337       C  0.74821977  0.94409987  0.95257934     0.81900
N1338       N  0.74822212  0.98135968  0.95741435    -0.80600
C1339       C  0.00803869  0.98273849  0.71737135     0.79300
N1340       N  0.98746097  0.00534704  0.69527009    -0.79000
C1341       C  0.95092215  0.00168269  0.69392007     0.81800
N1342       N  0.93534700  0.97517319  0.71523969    -0.78900
C1343       C  0.95586539  0.95277736  0.73810264     0.81900
N1344       N  0.99214629  0.95692513  0.73928832    -0.80600
C1345       C  0.72433297  0.52544763  0.24799381    -0.06100
C1346       C  0.70595725  0.55929098  0.24888544    -0.06000
C1347       C  0.66948846  0.56028351  0.25690714    -0.24200
C1348       C  0.65074541  0.52743903  0.26471856     0.18000
C1349       C  0.66886174  0.49307623  0.26467451     0.15200
C1350       C  0.70567095  0.49220228  0.25581709    -0.19200
C1351       C  0.64965523  0.46045712  0.27338693    -0.21100
C1352       C  0.61263041  0.46189481  0.28073712    -0.13600
C1353       C  0.59440299  0.49590515  0.27910061     0.03000
C1354       C  0.61389981  0.52856109  0.27187259    -0.25800
H1355       H  0.71983461  0.58517820  0.24305243     0.08100
H1356       H  0.65591901  0.58679826  0.25696234     0.11700
H1357       H  0.71986958  0.46602985  0.25576097     0.11700
H1358       H  0.66306216  0.43385544  0.27382247     0.11400
H1359       H  0.59796302  0.43637561  0.28607664     0.12000
H1360       H  0.60007173  0.55498163  0.27098664     0.13900
C1361       C  0.74805893  0.34283191  0.49154244    -0.06100
C1362       C  0.71476115  0.36117830  0.48799952    -0.06000
C1363       C  0.71317620  0.39979844  0.49036465    -0.24200
C1364       C  0.74499825  0.42075353  0.49513507     0.18000
C1365       C  0.77869271  0.40252830  0.49768141     0.15200
C1366       C  0.77991654  0.36371300  0.49670967    -0.19200
C1367       C  0.81068146  0.42345249  0.50038783    -0.21100
C1368       C  0.80935833  0.46210867  0.50025721    -0.13600
C1369       C  0.77601291  0.48047725  0.49866710     0.03000
C1370       C  0.74382779  0.45961796  0.49654664    -0.25800
H1371       H  0.68986873  0.34557316  0.48403916     0.08100
H1372       H  0.68714511  0.41328923  0.48799027     0.11700
H1373       H  0.80575545  0.34978756  0.49897049     0.11700
H1374       H  0.83673759  0.40994610  0.50198890     0.11400
H1375       H  0.83447169  0.47771190  0.50179460     0.12000
H1376       H  0.71803329  0.47365945  0.49470798     0.13900
C1377       C  0.81085293  0.49466805  0.75642281    -0.06100
C1378       C  0.83125841  0.47771396  0.78496106    -0.06000
C1379       C  0.86900816  0.47850991  0.78470801    -0.24200
C1380       C  0.88698756  0.49582138  0.75565032     0.18000
C1381       C  0.86679820  0.51102576  0.72568552     0.15200
C1382       C  0.82887336  0.51067517  0.72643702    -0.19200
C1383       C  0.88496062  0.52707969  0.69595490    -0.21100
C1384       C  0.92276806  0.52931553  0.69663018    -0.13600
C1385       C  0.94270871  0.51628407  0.72734813     0.03000
C1386       C  0.92477847  0.49898974  0.75647915    -0.25800
H1387       H  0.81805834  0.46508906  0.80823658     0.08100
H1388       H  0.88414050  0.46625172  0.80761302     0.11700
H1389       H  0.81342586  0.52336089  0.70395891     0.11700
H1390       H  0.86993091  0.53843773  0.67252856     0.11400
H1391       H  0.93637189  0.54245026  0.67386432     0.12000
H1392       H  0.94031457  0.48839784  0.77996193     0.13900
C1393       C  0.32712600  0.50245140  0.76547461    -0.06100
C1394       C  0.34565027  0.50156216  0.79967202    -0.06000
C1395       C  0.38319432  0.50087689  0.80168382    -0.24200
C1396       C  0.40294216  0.50175970  0.76950685     0.18000
C1397       C  0.38476274  0.50329221  0.73483529     0.15200
C1398       C  0.34678042  0.50293802  0.73300315    -0.19200
C1399       C  0.40499081  0.50572725  0.70279778    -0.21100
C1400       C  0.44279375  0.50647422  0.70520537    -0.13600
C1401       C  0.46068383  0.50370566  0.73956601     0.03000
C1402       C  0.44064826  0.50144324  0.77157473    -0.25800
H1403       H  0.33099976  0.50113078  0.82503955     0.08100
H1404       H  0.39677619  0.49998930  0.82841933     0.11700
H1405       H  0.33260897  0.50415425  0.70658018     0.11700
H1406       H  0.39161465  0.50728630  0.67600148     0.11400
H1407       H  0.45806866  0.50850963  0.68028562     0.12000
H1408       H  0.45449458  0.50016843  0.79819820     0.13900
C1409       C  0.82009136  0.81209423  0.53717319    -0.06100
C1410       C  0.81445374  0.82935077  0.57067870    -0.06000
C1411       C  0.79667934  0.86308115  0.57093785    -0.24200
C1412       C  0.78363762  0.87857551  0.53774595     0.18000
C1413       C  0.79240388  0.86286378  0.50386648     0.15200
C1414       C  0.81289494  0.83093956  0.50389125    -0.19200
C1415       C  0.77831310  0.87771675  0.47073674    -0.21100
C1416       C  0.75684218  0.90918195  0.47118759    -0.13600
C1417       C  0.74957757  0.92557973  0.50477605     0.03000
C1418       C  0.76155640  0.90923141  0.53792827    -0.25800
H1419       H  0.81984338  0.81475130  0.59641153     0.08100
H1420       H  0.79052114  0.87536140  0.59702299     0.11700
H1421       H  0.81732883  0.81754531  0.47788873     0.11700
H1422       H  0.78443936  0.86545316  0.44463315     0.11400
H1423       H  0.74822685  0.92211660  0.44543729     0.12000
H1424       H  0.75560557  0.92199048  0.56389944     0.13900
C1425       C  0.49766351  0.77247301  0.32842672    -0.06100
C1426       C  0.46870096  0.75757874  0.34808379    -0.06000
C1427       C  0.46798722  0.76125366  0.38618181    -0.24200
C1428       C  0.49684489  0.77872315  0.40492687     0.18000
C1429       C  0.52516530  0.79517064  0.38492354     0.15200
C1430       C  0.52457944  0.79319163  0.34688545    -0.19200
C1431       C  0.55520885  0.81072772  0.40327517    -0.21100
C1432       C  0.55823645  0.80799840  0.44123587    -0.13600
C1433       C  0.53061621  0.79114964  0.46106826     0.03000
C1434       C  0.49927484  0.77785166  0.44325877    -0.25800
H1435       H  0.44749479  0.74179367  0.33426825     0.08100
H1436       H  0.44608488  0.74853856  0.40111577     0.11700
H1437       H  0.54708204  0.80499146  0.33212572     0.11700
H1438       H  0.57715546  0.82322127  0.38821797     0.11400
H1439       H  0.58237336  0.81849975  0.45518090     0.12000
H1440       H  0.47820273  0.76462099  0.45903800     0.13900
C1441       C  0.49759303  0.70995783  0.82462240    -0.06100
C1442       C  0.46848616  0.72534183  0.84299123    -0.06000
C1443       C  0.46562499  0.72043788  0.88094571    -0.24200
C1444       C  0.49240668  0.70103584  0.90108103     0.18000
C1445       C  0.52059683  0.68368557  0.88254571     0.15200
C1446       C  0.52234478  0.68735615  0.84442607    -0.19200
C1447       C  0.54838263  0.66572407  0.90266530    -0.21100
C1448       C  0.54992565  0.66783355  0.94091446    -0.13600
C1449       C  0.52293052  0.68654624  0.95921442     0.03000
C1450       C  0.49330411  0.70145437  0.93949438    -0.25800
H1451       H  0.44887199  0.74252536  0.82836714     0.08100
H1452       H  0.44376885  0.73376124  0.89480707     0.11700
H1453       H  0.54485589  0.67499520  0.83074690     0.11700
H1454       H  0.57017862  0.65232865  0.88876973     0.11400
H1455       H  0.57300251  0.65654987  0.95605377     0.12000
H1456       H  0.47275293  0.71628878  0.95395235     0.13900
C1457       C  0.72357141  0.03668674  0.98574779    -0.06100
C1458       C  0.68951986  0.05301930  0.98859791    -0.06000
C1459       C  0.68666164  0.09094753  0.99375831    -0.24200
C1460       C  0.71789921  0.11287917  0.99666122     0.18000
C1461       C  0.75242039  0.09659594  0.99442332     0.15200
C1462       C  0.75503590  0.05841764  0.98863222    -0.19200
C1463       C  0.78354669  0.11888848  0.99780959    -0.21100
C1464       C  0.78038204  0.15711721  0.00254761    -0.13600
C1465       C  0.74608634  0.17328358  0.00366241     0.03000
C1466       C  0.71503131  0.15097488  0.00124125    -0.25800
H1467       H  0.66506464  0.03637444  0.98648674     0.08100
H1468       H  0.66007994  0.10311288  0.99544836     0.11700
H1469       H  0.78131196  0.04553103  0.98703507     0.11700
H1470       H  0.81019492  0.10687592  0.99624744     0.11400
H1471       H  0.80458134  0.17417024  0.00409376     0.12000
H1472       H  0.68850040  0.16341444  0.00249520     0.13900
C1473       C  0.04742715  0.98616893  0.71793258    -0.06100
C1474       C  0.06567226  0.99452982  0.68555128    -0.06000
C1475       C  0.10334802  0.99487245  0.68560042    -0.24200
C1476       C  0.12306903  0.98783093  0.71827284     0.18000
C1477       C  0.10468016  0.98098628  0.75130782     0.15200
C1478       C  0.06700410  0.97958750  0.75077197    -0.19200
C1479       C  0.12425239  0.97573667  0.78434641    -0.21100
C1480       C  0.16181882  0.97705911  0.78461940    -0.13600
C1481       C  0.18015701  0.98251433  0.75174913     0.03000
C1482       C  0.16083060  0.98776626  0.71859385    -0.25800
H1483       H  0.05077952  0.99964306  0.66000318     0.08100
H1484       H  0.11702192  0.00056599  0.66016931     0.11700
H1485       H  0.05287317  0.97364264  0.77592453     0.11700
H1486       H  0.11054459  0.97084340  0.80991101     0.11400
H1487       H  0.17663688  0.97314493  0.81042635     0.12000
H1488       H  0.17517458  0.99262510  0.69336991     0.13900
C1489       C  0.00054519  0.75852938  0.02863640    -0.06100
C1490       C  0.00446907  0.72580202  0.04962266    -0.06000
C1491       C  0.00352322  0.72672887  0.08772558    -0.24200
C1492       C  0.99941467  0.76051595  0.10545802     0.18000
C1493       C  0.99612374  0.79382298  0.08477093     0.15200
C1494       C  0.99618240  0.79254346  0.04631124    -0.19200
C1495       C  0.99328315  0.82770423  0.10302330    -0.21100
C1496       C  0.99396199  0.82844272  0.14145289    -0.13600
C1497       C  0.99653638  0.79522645  0.16179680     0.03000
C1498       C  0.99902320  0.76143624  0.14365549    -0.25800
H1499       H  0.00775757  0.69930560  0.03650384     0.08100
H1500       H  0.00625527  0.70105792  0.10332692     0.11700
H1501       H  0.99358757  0.81793686  0.03022834     0.11700
H1502       H  0.99088693  0.85352172  0.08763505     0.11400
H1503       H  0.99198290  0.85474155  0.15525559     0.12000
H1504       H  0.00158599  0.73580157  0.15940282     0.13900
C1505       C  0.26819264  0.71697564  0.48663614    -0.06100
C1506       C  0.30178559  0.69932158  0.48760492    -0.06000
C1507       C  0.30344563  0.66072253  0.48827907    -0.24200
C1508       C  0.27148186  0.63963789  0.48911262     0.18000
C1509       C  0.23756384  0.65751333  0.48812023     0.15200
C1510       C  0.23618340  0.69606962  0.48619488    -0.19200
C1511       C  0.20562334  0.63663778  0.49053931    -0.21100
C1512       C  0.20729740  0.59832415  0.49508767    -0.13600
C1513       C  0.24080587  0.58058285  0.49625262     0.03000
C1514       C  0.27281086  0.60108726  0.49240649    -0.25800
H1515       H  0.32662191  0.71543029  0.48827572     0.08100
H1516       H  0.32961253  0.64742427  0.48928064     0.11700
H1517       H  0.21025802  0.70989512  0.48641843     0.11700
H1518       H  0.17949383  0.65001111  0.48993533     0.11400
H1519       H  0.18250187  0.58250480  0.49794499     0.12000
H1520       H  0.29871636  0.58719599  0.49385518     0.13900
C1521       C  0.26173502  0.06419850  0.50934979    -0.06100
C1522       C  0.29109565  0.08360052  0.52546292    -0.06000
C1523       C  0.29281769  0.12235231  0.52341447    -0.24200
C1524       C  0.26509077  0.14239927  0.50541816     0.18000
C1525       C  0.23553386  0.12314363  0.48903709     0.15200
C1526       C  0.23410528  0.08435269  0.49105355    -0.19200
C1527       C  0.20747603  0.14301759  0.47142426    -0.21100
C1528       C  0.20810327  0.18170446  0.47101283    -0.13600
C1529       C  0.23702042  0.20095514  0.48761481     0.03000
C1530       C  0.26580935  0.18134354  0.50429573    -0.25800
H1531       H  0.31279956  0.06884247  0.53963877     0.08100
H1532       H  0.31566127  0.13663805  0.53616468     0.11700
H1533       H  0.21110619  0.06994408  0.47872251     0.11700
H1534       H  0.18464805  0.12865618  0.45873711     0.11400
H1535       H  0.18564911  0.19668699  0.45840485     0.12000
H1536       H  0.28785317  0.19640920  0.51766025     0.13900
C1537       C  0.02570471  0.76291067  0.70238735    -0.06100
C1538       C  0.06053903  0.76034150  0.68855489    -0.06000
C1539       C  0.06583335  0.76600719  0.65118641    -0.24200
C1540       C  0.03611249  0.77301465  0.62753368     0.18000
C1541       C  0.00103476  0.77580771  0.64168596     0.15200
C1542       C  0.99626959  0.77156604  0.67904462    -0.19200
C1543       C  0.97094212  0.78074957  0.61810594    -0.21100
C1544       C  0.97539678  0.78105445  0.58041941    -0.13600
C1545       C  0.01004551  0.77798217  0.56642075     0.03000
C1546       C  0.04046687  0.77516459  0.58978675    -0.25800
H1547       H  0.08345065  0.75378258  0.70653791     0.08100
H1548       H  0.09280820  0.76363388  0.64063451     0.11700
H1549       H  0.96919159  0.77300820  0.68963122     0.11700
H1550       H  0.94394779  0.78273172  0.62872282     0.11400
H1551       H  0.95187736  0.78308735  0.56215517     0.12000
H1552       H  0.06708955  0.77209488  0.57846669     0.13900
C1553       C  0.98701110  0.25567840  0.29967053    -0.06100
C1554       C  0.97041020  0.22408875  0.31470298    -0.06000
C1555       C  0.97089041  0.21844587  0.35279740    -0.24200
C1556       C  0.98849553  0.24408622  0.37595377     0.18000
C1557       C  0.00594675  0.27541028  0.36050633     0.15200
C1558       C  0.00485499  0.28106622  0.32253883    -0.19200
C1559       C  0.02387559  0.30090646  0.38323679    -0.21100
C1560       C  0.02353896  0.29621387  0.42117551    -0.13600
C1561       C  0.00525431  0.26590800  0.43707201     0.03000
C1562       C  0.98841549  0.23943231  0.41422422    -0.25800
H1563       H  0.95681131  0.20415902  0.29702698     0.08100
H1564       H  0.95743793  0.19424724  0.36412023     0.11700
H1565       H  0.01822345  0.30506655  0.31061252     0.11700
H1566       H  0.03756357  0.32487388  0.37171160     0.11400
H1567       H  0.03686466  0.31699412  0.43805368     0.12000
H1568       H  0.97468500  0.21568690  0.42613669     0.13900
C1569       C  0.99572565  0.24642872  0.78499606    -0.06100
C1570       C  0.02820790  0.25071143  0.80551389    -0.06000
C1571       C  0.02895789  0.24672633  0.84373328    -0.24200
C1572       C  0.99701167  0.23953903  0.86242157     0.18000
C1573       C  0.96407741  0.23539192  0.84217337     0.15200
C1574       C  0.96377038  0.23797027  0.80356617    -0.19200
C1575       C  0.93183463  0.23011731  0.86098893    -0.21100
C1576       C  0.93205659  0.23025879  0.89938829    -0.13600
C1577       C  0.96462509  0.23411410  0.91968691     0.03000
C1578       C  0.99721826  0.23783147  0.90105218    -0.25800
H1579       H  0.05326369  0.25698235  0.79196269     0.08100
H1580       H  0.05441384  0.25018395  0.85873613     0.11700
H1581       H  0.93850037  0.23476477  0.78814357     0.11700
H1582       H  0.90631489  0.22699101  0.84602869     0.11400
H1583       H  0.90670362  0.22719636  0.91335198     0.12000
H1584       H  0.02240402  0.24115111  0.91661058     0.13900
C1585       C  0.44804583  0.00465598  0.24139316    -0.06100
C1586       C  0.43514455  0.00510550  0.20466596    -0.06000
C1587       C  0.39816838  0.00904122  0.19604483    -0.24200
C1588       C  0.37293867  0.01161984  0.22399814     0.18000
C1589       C  0.38549649  0.01094113  0.26106496     0.15200
C1590       C  0.42295104  0.00832864  0.26950935    -0.19200
C1591       C  0.36024955  0.01174670  0.28907886    -0.21100
C1592       C  0.32310949  0.01276190  0.28058561    -0.13600
C1593       C  0.31009658  0.01399475  0.24387455     0.03000
C1594       C  0.33539017  0.01383239  0.21560084    -0.25800
H1595       H  0.45380500  0.00226048  0.18247776     0.08100
H1596       H  0.38923413  0.00922925  0.16746698     0.11700
H1597       H  0.43239571  0.00743094  0.29793942     0.11700
H1598       H  0.36918701  0.01085399  0.31765376     0.11400
H1599       H  0.30437562  0.01256249  0.30294618     0.12000
H1600       H  0.32582076  0.01389797  0.18721123     0.13900
C1601       C  0.22716780  0.92232887  0.01128524    -0.06100
C1602       C  0.19443481  0.90234958  0.01094752    -0.06000
C1603       C  0.19437280  0.86345721  0.01196295    -0.24200
C1604       C  0.22705028  0.84389569  0.01450699     0.18000
C1605       C  0.26005675  0.86384739  0.01674542     0.15200
C1606       C  0.25991873  0.90280865  0.01443074    -0.19200
C1607       C  0.29266119  0.84447771  0.02119316    -0.21100
C1608       C  0.29263852  0.80570668  0.02311841    -0.13600
C1609       C  0.26018269  0.78555573  0.01942777     0.03000
C1610       C  0.22738512  0.80481452  0.01495453    -0.25800
H1611       H  0.16892620  0.91681286  0.00861461     0.08100
H1612       H  0.16877448  0.84868268  0.01067835     0.11700
H1613       H  0.28531552  0.91801504  0.01527875     0.11700
H1614       H  0.31818735  0.85932240  0.02326882     0.11400
H1615       H  0.31813862  0.79135281  0.02649553     0.12000
H1616       H  0.20220091  0.78937700  0.01241700     0.13900
C1617       C  0.26444304  0.42247742  0.01337630    -0.06100
C1618       C  0.27179641  0.40117197  0.04523491    -0.06000
C1619       C  0.26911283  0.36254053  0.04443515    -0.24200
C1620       C  0.25987787  0.34460939  0.01154157     0.18000
C1621       C  0.25395591  0.36572602  0.97897651     0.15200
C1622       C  0.25578909  0.40453781  0.98022756    -0.19200
C1623       C  0.24612545  0.34764093  0.94577329    -0.21100
C1624       C  0.24387733  0.30895955  0.94491360    -0.13600
C1625       C  0.24846765  0.28805524  0.97736411     0.03000
C1626       C  0.25639599  0.30593830  0.01063159    -0.25800
H1627       H  0.27851514  0.41446629  0.07105245     0.08100
H1628       H  0.27408046  0.34671902  0.06954430     0.11700
H1629       H  0.25058683  0.42079354  0.95541878     0.11700
H1630       H  0.24172066  0.36339533  0.92053580     0.11400
H1631       H  0.23761589  0.29538256  0.91913651     0.12000
H1632       H  0.26023052  0.28965443  0.03567099     0.13900
C1633       C  0.79485890  0.98991428  0.24994057    -0.06100
C1634       C  0.81332801  0.95970744  0.23551391    -0.06000
C1635       C  0.85087759  0.96067409  0.23314288    -0.24200
C1636       C  0.87036747  0.99194655  0.24496957     0.18000
C1637       C  0.85181270  0.02261723  0.25905578     0.15200
C1638       C  0.81428117  0.02133257  0.26151857    -0.19200
C1639       C  0.87108285  0.05415562  0.27047382    -0.21100
C1640       C  0.90848841  0.05544123  0.26770382    -0.13600
C1641       C  0.92695869  0.02504032  0.25408902     0.03000
C1642       C  0.90804891  0.99324865  0.24286786    -0.25800
H1643       H  0.79881299  0.93508412  0.22661000     0.08100
H1644       H  0.86464651  0.93698494  0.22222757     0.11700
H1645       H  0.80020935  0.04489985  0.27234847     0.11700
H1646       H  0.85723388  0.07784853  0.28128306     0.11400
H1647       H  0.92312346  0.08013007  0.27626415     0.12000
H1648       H  0.92258157  0.97006941  0.23185191     0.13900
C1649       C  0.57648763  0.00890925  0.76550865    -0.06100
C1650       C  0.58927351  0.01396354  0.73000763    -0.06000
C1651       C  0.62340650  0.02934438  0.72522674    -0.24200
C1652       C  0.64525689  0.03799654  0.75604158     0.18000
C1653       C  0.63216710  0.03303066  0.79186608     0.15200
C1654       C  0.59737163  0.01968633  0.79623147    -0.19200
C1655       C  0.65525613  0.03771961  0.82264026    -0.21100
C1656       C  0.69224792  0.04155431  0.81764109    -0.13600
C1657       C  0.70530829  0.04376485  0.78197001     0.03000
C1658       C  0.68138767  0.04671962  0.75167342    -0.25800
H1659       H  0.57282739  0.00633732  0.70619253     0.08100
H1660       H  0.63345015  0.03251858  0.69766607     0.11700
H1661       H  0.58732636  0.01545194  0.82371232     0.11700
H1662       H  0.64542416  0.03391745  0.85021956     0.11400
H1663       H  0.71072979  0.03890300  0.84108573     0.12000
H1664       H  0.69178337  0.04797273  0.72407324     0.13900
C1665       C  0.51735074  0.21414890  0.70260351    -0.06100
C1666       C  0.52457791  0.18289710  0.68150143    -0.06000
C1667       C  0.52589504  0.18585681  0.64313244    -0.24200
C1668       C  0.51893792  0.21991029  0.62524268     0.18000
C1669       C  0.51020318  0.25109106  0.64631768     0.15200
C1670       C  0.51022220  0.24818987  0.68482215    -0.19200
C1671       C  0.50157018  0.28469031  0.62854897    -0.21100
C1672       C  0.50202795  0.28761857  0.59027458    -0.13600
C1673       C  0.51200617  0.25731225  0.56901895     0.03000
C1674       C  0.52045379  0.22339721  0.58674183    -0.25800
H1675       H  0.53023837  0.15646245  0.69480576     0.08100
H1676       H  0.53233254  0.16155117  0.62747533     0.11700
H1677       H  0.50430667  0.27231220  0.70102012     0.11700
H1678       H  0.49442694  0.30873481  0.64426299     0.11400
H1679       H  0.49536848  0.31397199  0.57730280     0.12000
H1680       H  0.52770353  0.19967719  0.57058461     0.13900
C1681       C  0.50335004  0.22772866  0.06873000    -0.06100
C1682       C  0.50492260  0.19516875  0.09029634    -0.06000
C1683       C  0.50544152  0.19668550  0.12877332    -0.24200
C1684       C  0.50352052  0.23081982  0.14671851     0.18000
C1685       C  0.50101280  0.26383779  0.12548071     0.15200
C1686       C  0.50159901  0.26216751  0.08666339    -0.19200
C1687       C  0.49803185  0.29786780  0.14353387    -0.21100
C1688       C  0.49769325  0.29918547  0.18206255    -0.13600
C1689       C  0.50119814  0.26666861  0.20352748     0.03000
C1690       C  0.50418694  0.23247766  0.18549654    -0.25800
H1691       H  0.50681287  0.16842885  0.07732440     0.08100
H1692       H  0.50738213  0.17105647  0.14452760     0.11700
H1693       H  0.50035956  0.28755131  0.07042307     0.11700
H1694       H  0.49600061  0.32353063  0.12784710     0.11400
H1695       H  0.49575129  0.32585545  0.19516765     0.12000
H1696       H  0.50677461  0.20713730  0.20166419     0.13900
C1697       C  0.05937125  0.53188720  0.20915250    -0.06100
C1698       C  0.07932873  0.52388650  0.17812484    -0.06000
C1699       C  0.11606995  0.51592470  0.18205497    -0.24200
C1700       C  0.13255724  0.51457994  0.21719465     0.18000
C1701       C  0.11218132  0.52211320  0.24846916     0.15200
C1702       C  0.07604989  0.53167706  0.24410438    -0.19200
C1703       C  0.12797662  0.51916971  0.28373922    -0.21100
C1704       C  0.16417251  0.50970171  0.28805496    -0.13600
C1705       C  0.18492912  0.50387912  0.25711411     0.03000
C1706       C  0.16901418  0.50583284  0.22174575    -0.25800
H1707       H  0.06640038  0.52343579  0.15109218     0.08100
H1708       H  0.13132148  0.50996474  0.15786260     0.11700
H1709       H  0.06034954  0.53687774  0.26822615     0.11700
H1710       H  0.11244794  0.52452744  0.30789548     0.11400
H1711       H  0.17636131  0.50872225  0.31542437     0.12000
H1712       H  0.18516968  0.50112025  0.19784574     0.13900
C1713       C  0.77853185  0.55724568  0.95742419    -0.06100
C1714       C  0.77980176  0.57656763  0.92389952    -0.06000
C1715       C  0.77945087  0.61520698  0.92324369    -0.24200
C1716       C  0.77583076  0.63467160  0.95600939     0.18000
C1717       C  0.77518023  0.61525290  0.98997438     0.15200
C1718       C  0.77773384  0.57659081  0.99051474    -0.19200
C1719       C  0.76931926  0.63455736  0.02243332    -0.21100
C1720       C  0.76201382  0.67247538  0.02096521    -0.13600
C1721       C  0.76182171  0.69172036  0.98721123     0.03000
C1722       C  0.77022993  0.67290250  0.95505156    -0.25800
H1723       H  0.78007882  0.56169034  0.89825508     0.08100
H1724       H  0.77984812  0.62973025  0.89701564     0.11700
H1725       H  0.77596736  0.56139098  0.01632295     0.11700
H1726       H  0.76872030  0.62005530  0.04866421     0.11400
H1727       H  0.75609843  0.68665789  0.04611332     0.12000
H1728       H  0.77005895  0.68752974  0.92883973     0.13900
loop_ 
_geom_bond_atom_site_label_1 
_geom_bond_atom_site_label_2 
_geom_bond_distance 
_geom_bond_site_symmetry_2 
_ccdc_geom_bond_type 
Zr1           O2   2.436       .  S
Zr1           O3   2.443       .  S
Zr1           O4   2.522       .  S
Zr1           O7   2.490       .  S
Zr1           O9   2.391       .  S
Zr1          O10   2.384       .  S
Zr1          O11   2.425       .  S
Zr1          O12   2.432       .  S
O2           H58   0.990       .  S
O2           H66   0.990       .  S
O3           C23   1.285       .  A
O4           C25   1.298       .  A
O5          Zr15   2.417       .  S
O5           C24   1.282       .  A
O6          Zr14   2.354       .  S
O6           C25   1.260       .  A
O7           C24   1.295       .  A
O8          Zr16   2.447       .  S
O8           C23   1.288       .  A
O9          Zr14   2.402       .  S
O9          Zr16   2.371       .  S
O10         Zr15   2.358       .  S
O10         Zr16   2.354       .  S
O10          H45   0.964       .  S
O11         Zr14   2.401       .  S
O11         Zr31   2.411       .  S
O11          H48   0.967       .  S
O12         Zr15   2.401       .  S
O12         Zr31   2.423       .  S
Zr13         O38   2.435       .  S
Zr13         O32   2.426       .  S
Zr13         O40   2.457       .  S
Zr13         O28   2.513       .  S
Zr13         O19   2.419       .  S
Zr13         O20   2.409       .  S
Zr13         O21   2.374       .  S
Zr13         O22   2.393       .  S
Zr14         O33   2.436       .  S
Zr14         O26   2.440       .  S
Zr14         O27   2.360       .  S
Zr14         O20   2.403       .  S
Zr14         O21   2.385       .  S
Zr15         O17   2.436       .  S
Zr15         O39   2.441       .  S
Zr15         O41   2.414       .  S
Zr15         O19   2.398       .  S
Zr15         O22   2.369       .  S
Zr16         O42   2.437       .  S
Zr16         O43   2.436       .  S
Zr16         O18   2.436       .  S
Zr16         O19   2.403       .  S
Zr16         O20   2.402       .  S
O17          H54   0.990       .  S
O18          H49   0.990       .  S
O18          H63   0.990       .  S
O20          H46   0.964       .  S
O21         Zr31   2.374       .  S
O22         Zr31   2.361       .  S
O22          H47   0.966       .  S
C23         C645   1.474       .  S
C24         C665   1.486       .  S
C25         C639   1.488       .  S
O26          H62   0.991       .  S
O27          C29   1.263       .  A
O28          C29   1.299       .  A
C29         C633   1.477       .  S
O30         Zr31   2.441       .  S
O30          H59   0.991       .  S
Zr31         O34   2.439       .  S
Zr31         O35   2.439       .  S
Zr31         O36   2.467       .  S
O32          C37   1.282       .  A
O33          H50   0.990       .  S
O33          H65   0.989       .  S
O34          H51   0.990       .  S
O35          H55   0.990       .  S
O35          H64   0.990       .  S
O36          C37   1.291       .  A
C37         C651   1.474       .  S
O38          H57   0.990       .  S
O38          H61   0.990       .  S
O39          H53   0.990       .  S
O39          H60   0.990       .  S
O40          C44   1.289       .  A
O41          C44   1.282       .  A
O42          H52   0.990       .  S
O43          H56   0.990       .  S
C44         C657   1.469       .  S
Zr67         O68   2.438       .  S
Zr67         O69   2.443       .  S
Zr67         O70   2.565       .  S
Zr67         O73   2.503       .  S
Zr67         O75   2.387       .  S
Zr67         O76   2.397       .  S
Zr67         O77   2.413       .  S
Zr67         O78   2.436       .  S
O68         H124   0.991       .  S
O68         H132   0.990       .  S
O69          C89   1.287       .  A
O70          C91   1.311       .  A
O71         Zr81   2.387       .  S
O71          C90   1.278       .  A
O72         Zr80   2.360       .  S
O72          C91   1.270       .  A
O73          C90   1.298       .  A
O74         Zr82   2.451       .  S
O74          C89   1.288       .  A
O75         Zr80   2.381       .  S
O75         Zr82   2.387       .  S
O76         Zr81   2.370       .  S
O76         Zr82   2.342       .  S
O76         H111   0.962       .  S
O77         Zr80   2.389       .  S
O77         Zr97   2.401       .  S
O77         H114   0.965       .  S
O78         Zr81   2.403       .  S
O78         Zr97   2.419       .  S
Zr79        O104   2.436       .  S
Zr79         O98   2.397       .  S
Zr79        O106   2.491       .  S
Zr79         O94   2.527       .  S
Zr79         O85   2.418       .  S
Zr79         O86   2.408       .  S
Zr79         O87   2.380       .  S
Zr79         O88   2.387       .  S
Zr80         O99   2.439       .  S
Zr80         O92   2.436   1_655  S
Zr80         O93   2.357       .  S
Zr80         O86   2.386       .  S
Zr80         O87   2.386       .  S
Zr81         O83   2.434       .  S
Zr81        O105   2.435       .  S
Zr81        O107   2.418       .  S
Zr81         O85   2.395       .  S
Zr81         O88   2.348       .  S
Zr82        O108   2.435       .  S
Zr82        O109   2.437       .  S
Zr82         O84   2.438   1_655  S
Zr82         O85   2.414       .  S
Zr82         O86   2.392       .  S
O83         H120   0.990       .  S
O84         H115   0.990       .  S
O84         H129   0.990       .  S
O86         H112   0.967       .  S
O87         Zr97   2.379       .  S
O88         Zr97   2.338       .  S
O88         H113   0.962       .  S
C89         C207   1.472       .  S
C90         C669   1.472       .  S
C91         C615   1.504       .  S
O92         H128   0.990       .  S
O93          C95   1.267       .  A
O94          C95   1.304       .  A
C95         C599   1.484       .  S
O96         Zr97   2.439       .  S
O96         H125   0.990       .  S
Zr97        O100   2.439       .  S
Zr97        O101   2.439       .  S
Zr97        O102   2.476       .  S
O98         C103   1.278       .  A
O99         H116   0.990       .  S
O99         H131   0.990       .  S
O100        H117   0.990       .  S
O101        H121   0.990       .  S
O101        H130   0.990       .  S
O102        C103   1.293       .  A
C103        C647   1.454       .  S
O104        H123   0.990       .  S
O104        H127   0.990       .  S
O105        H119   0.990       .  S
O105        H126   0.990       .  S
O106        C110   1.296       .  A
O107        C110   1.282       .  A
O108        H118   0.990       .  S
O109        H122   0.990       .  S
C110        C663   1.475       .  S
Zr133       O134   2.435       .  S
Zr133       O135   2.441       .  S
Zr133       O136   2.518       .  S
Zr133       O139   2.461       .  S
Zr133       O141   2.381       .  S
Zr133       O142   2.387       .  S
Zr133       O143   2.416       .  S
Zr133       O144   2.428       .  S
O134        H190   0.990       .  S
O134        H198   0.990       .  S
O135        C155   1.285       .  A
O136        C157   1.296       .  A
O137       Zr147   2.432       .  S
O137        C156   1.283       .  A
O138       Zr146   2.371       .  S
O138        C157   1.265       .  A
O139        C156   1.289       .  A
O140       Zr148   2.464       .  S
O140        C155   1.290       .  A
O141       Zr146   2.393       .  S
O141       Zr148   2.367       .  S
O142       Zr147   2.366       .  S
O142       Zr148   2.360       .  S
O142        H177   0.964       .  S
O143       Zr146   2.393       .  S
O143       Zr163   2.405       .  S
O143        H180   0.966       .  S
O144       Zr147   2.394       .  S
O144       Zr163   2.414       .  S
Zr145       O170   2.438   1_554  S
Zr145       O164   2.440       .  S
Zr145       O172   2.460       .  S
Zr145       O160   2.510       .  S
Zr145       O151   2.413       .  S
Zr145       O152   2.414       .  S
Zr145       O153   2.370       .  S
Zr145       O154   2.401       .  S
Zr146       O165   2.438       .  S
Zr146       O158   2.437       .  S
Zr146       O159   2.369       .  S
Zr146       O152   2.391       .  S
Zr146       O153   2.382       .  S
Zr147       O149   2.435       .  S
Zr147       O171   2.440       .  S
Zr147       O173   2.407       .  S
Zr147       O151   2.396       .  S
Zr147       O154   2.389       .  S
Zr148       O174   2.436       .  S
Zr148       O175   2.436       .  S
Zr148       O150   2.437       .  S
Zr148       O151   2.396       .  S
Zr148       O152   2.417       .  S
O149        H186   0.990       .  S
O150        H181   0.990       .  S
O150        H195   0.990       .  S
O152        H178   0.967       .  S
O153       Zr163   2.369       .  S
O154       Zr163   2.378       .  S
O154        H179   0.966       .  S
C155        C209   1.478       .  S
C156        C671   1.475       .  S
C157        C393   1.486       .  S
O158        H194   0.990       .  S
O159        C161   1.269       .  A
O160        C161   1.297       .  A
C161        C387   1.479       .  S
O162       Zr163   2.436       .  S
O162        H191   0.990       .  S
Zr163       O166   2.436       .  S
Zr163       O167   2.439       .  S
Zr163       O168   2.447       .  S
O164        C169   1.284       .  A
O165        H182   0.989       .  S
O165        H197   0.990       .  S
O166        H183   0.990       .  S
O167        H187   0.990       .  S
O167        H196   0.989       .  S
O168        C169   1.285       .  A
C169        C627   1.473       .  S
O170        H189   0.990       .  S
O170        H193   0.990       .  S
O171        H185   0.990       .  S
O171        H192   0.990       .  S
O172        C176   1.290       .  A
O173        C176   1.279       .  A
O174        H184   0.990       .  S
O175        H188   0.990       .  S
C176        C201   1.463   1_554  S
C199       C1713   1.457       .  S
C199        N200   1.358       .  A
C199        N204   1.357       .  A
N200        C201   1.356       .  A
C201        N202   1.352       .  A
N202        C203   1.360       .  A
C203        C239   1.455       .  S
C203        N204   1.352       .  A
C205       C1697   1.454       .  S
C205        N206   1.351       .  A
C205        N210   1.352       .  A
N206        C207   1.347   1_455  A
C207        N208   1.372       .  A
N208        C209   1.374       .  A
C209        N210   1.353   1_655  A
Zr211       O212   2.436       .  S
Zr211       O213   2.424       .  S
Zr211       O214   2.481       .  S
Zr211       O217   2.442       .  S
Zr211       O219   2.379       .  S
Zr211       O220   2.390       .  S
Zr211       O221   2.410       .  S
Zr211       O222   2.421       .  S
O212        H268   0.990       .  S
O212        H276   0.990       .  S
O213        C233   1.282       .  A
O214        C235   1.290       .  A
O215       Zr225   2.444       .  S
O215        C234   1.288       .  A
O216       Zr224   2.374       .  S
O216        C235   1.267       .  A
O217        C234   1.286       .  A
O218       Zr226   2.457       .  S
O218        C233   1.288       .  A
O219       Zr224   2.393       .  S
O219       Zr226   2.366       .  S
O220       Zr225   2.389       .  S
O220       Zr226   2.364       .  S
O220        H255   0.963       .  S
O221       Zr224   2.395       .  S
O221       Zr241   2.400       .  S
O221        H258   0.968       .  S
O222       Zr225   2.401       .  S
O222       Zr241   2.403       .  S
Zr223       O248   2.436       .  S
Zr223       O242   2.420       .  S
Zr223       O250   2.429       .  S
Zr223       O238   2.453       .  S
Zr223       O229   2.418       .  S
Zr223       O230   2.415       .  S
Zr223       O231   2.376       .  S
Zr223       O232   2.390       .  S
Zr224       O243   2.439       .  S
Zr224       O236   2.439       .  S
Zr224       O237   2.377       .  S
Zr224       O230   2.408       .  S
Zr224       O231   2.375       .  S
Zr225       O227   2.436       .  S
Zr225       O249   2.436       .  S
Zr225       O251   2.466       .  S
Zr225       O229   2.389       .  S
Zr225       O232   2.381       .  S
Zr226       O252   2.436       .  S
Zr226       O253   2.435       .  S
Zr226       O228   2.439       .  S
Zr226       O229   2.415       .  S
Zr226       O230   2.402       .  S
O227        H264   0.990       .  S
O228        H259   0.990   1_556  S
O228        H273   0.990   1_556  S
O230        H256   0.965       .  S
O231       Zr241   2.366       .  S
O232       Zr241   2.370       .  S
O232        H257   0.965       .  S
C233        C347   1.475       .  S
C234        C353   1.475       .  S
C235        C629   1.469       .  S
O236        H272   0.990   1_556  S
O237        C239   1.266       .  A
O238        C239   1.283       .  A
O240       Zr241   2.440       .  S
O240        H269   0.990       .  S
Zr241       O244   2.437       .  S
Zr241       O245   2.439       .  S
Zr241       O246   2.454       .  S
O242        C247   1.282       .  A
O243        H260   0.990       .  S
O243        H275   0.990       .  S
O244        H261   0.990       .  S
O245        H265   0.990       .  S
O245        H274   0.990       .  S
O246        C247   1.288       .  A
C247        C659   1.471       .  S
O248        H267   0.990       .  S
O248        H271   0.990       .  S
O249        H263   0.990       .  S
O249        H270   0.990       .  S
O250        C254   1.284       .  A
O251        C254   1.292       .  A
O252        H262   0.990       .  S
O253        H266   0.990       .  S
C254        C653   1.478       .  S
Zr277       O278   2.440       .  S
Zr277       O279   2.451       .  S
Zr277       O280   2.534       .  S
Zr277       O283   2.467       .  S
Zr277       O285   2.382       .  S
Zr277       O286   2.399       .  S
Zr277       O287   2.405       .  S
Zr277       O288   2.424       .  S
O278        H334   0.990       .  S
O278        H342   0.991       .  S
O279        C299   1.288       .  A
O280        C301   1.304       .  A
O281       Zr291   2.399       .  S
O281        C300   1.279       .  A
O282       Zr290   2.371       .  S
O282        C301   1.271       .  A
O283        C300   1.292       .  A
O284       Zr292   2.436       .  S
O284        C299   1.284       .  A
O285       Zr290   2.374       .  S
O285       Zr292   2.382       .  S
O286       Zr291   2.386       .  S
O286       Zr292   2.362       .  S
O286        H321   0.965       .  S
O287       Zr290   2.392       .  S
O287       Zr307   2.393       .  S
O287        H324   0.965       .  S
O288       Zr291   2.403       .  S
O288       Zr307   2.403       .  S
Zr289       O314   2.436       .  S
Zr289       O308   2.462       .  S
Zr289       O316   2.494       .  S
Zr289       O304   2.503       .  S
Zr289       O295   2.417       .  S
Zr289       O296   2.419       .  S
Zr289       O297   2.377       .  S
Zr289       O298   2.382       .  S
Zr290       O309   2.438       .  S
Zr290       O302   2.434   1_545  S
Zr290       O303   2.359       .  S
Zr290       O296   2.387       .  S
Zr290       O297   2.390       .  S
Zr291       O293   2.434       .  S
Zr291       O315   2.438       .  S
Zr291       O317   2.427       .  S
Zr291       O295   2.383       .  S
Zr291       O298   2.375       .  S
Zr292       O318   2.438   1_556  S
Zr292       O319   2.434       .  S
Zr292       O294   2.435   1_545  S
Zr292       O295   2.405       .  S
Zr292       O296   2.399       .  S
O293        H330   0.990       .  S
O294        H325   0.990       .  S
O294        H339   0.990       .  S
O296        H322   0.969       .  S
O297       Zr307   2.370       .  S
O298       Zr307   2.369       .  S
O298        H323   0.967       .  S
C299        C375   1.473       .  S
C300        C371   1.462       .  S
C301        C621   1.491       .  S
O302        H338   0.990       .  S
O303        C305   1.268       .  A
O304        C305   1.300       .  A
C305        C359   1.470   1_545  S
O306       Zr307   2.439       .  S
O306        H335   0.991       .  S
Zr307       O310   2.439       .  S
Zr307       O311   2.440       .  S
Zr307       O312   2.430       .  S
O308        C313   1.289       .  A
O309        H326   0.990   1_545  S
O309        H341   0.990       .  S
O310        H327   0.990       .  S
O311        H331   0.990       .  S
O311        H340   0.990       .  S
O312        C313   1.283       .  A
C313        C351   1.478       .  S
O314        H333   0.990       .  S
O314        H337   0.990       .  S
O315        H329   0.990       .  S
O315        H336   0.990   1_556  S
O316        C320   1.297       .  A
O317        C320   1.283       .  A
O318        H328   0.990       .  S
O319        H332   0.990       .  S
C320        C345   1.490       .  S
C343       C1681   1.495       .  S
C343        N344   1.368       .  A
C343        N348   1.360       .  A
N344        C345   1.367   1_554  A
C345        N346   1.362       .  A
N346        C347   1.365       .  A
C347        N348   1.360   1_556  A
C349       C1665   1.477       .  S
C349        N350   1.360       .  A
C349        N354   1.357       .  A
N350        C351   1.363       .  A
C351        N352   1.365       .  A
N352        C353   1.365       .  A
C353        N354   1.357       .  A
C355       C1649   1.444   1_565  S
C355        N356   1.364       .  A
C355        N360   1.353   1_565  A
N356        C357   1.355       .  A
C357        C491   1.482       .  S
C357        N358   1.368       .  A
N358        C359   1.361       .  A
C359        N360   1.337   1_565  A
C361       C1641   1.453       .  S
C361        N362   1.354       .  A
C361        N366   1.359       .  A
N362        C363   1.349   1_655  A
C363        C421   1.476       .  S
C363        N364   1.374       .  A
N364        C365   1.367       .  A
C365        C565   1.491   1_545  S
C365        N366   1.357   1_455  A
C367       C1625   1.465       .  S
C367        N368   1.351   1_556  A
C367        N372   1.356       .  A
N368        C369   1.353       .  A
C369        C440   1.455       .  S
C369        N370   1.360   1_554  A
N370        C371   1.361       .  A
C371        N372   1.361       .  A
C373       C1601   1.484       .  S
C373        N374   1.360   1_554  A
C373        N378   1.364       .  A
N374        C375   1.357   1_565  A
C375        N376   1.360       .  A
N376        C377   1.363   1_556  A
C377        C433   1.477       .  S
C377        N378   1.364   1_545  A
C379       C1593   1.497       .  S
C379        N380   1.376       .  A
C379        N384   1.367   1_545  A
N380        C381   1.370       .  A
C381        C425   1.498       .  S
C381        N382   1.368       .  A
N382        C383   1.351   1_545  A
C383        C572   1.493       .  S
C383        N384   1.359       .  A
C385       C1577   1.477       .  S
C385        N386   1.364       .  A
C385        N390   1.366       .  A
N386        C387   1.356   1_556  A
C387        N388   1.366       .  A
N388        C389   1.356       .  A
C389        C420   1.489   1_655  S
C389        N390   1.363   1_554  A
C391       C1553   1.458       .  S
C391        N392   1.361       .  A
C391        N396   1.358   1_655  A
N392        C393   1.355       .  A
C393        N394   1.371       .  A
N394        C395   1.363   1_655  A
C395        C419   1.481       .  S
C395        N396   1.354       .  A
Zr397       O398   2.437   1_455  S
Zr397       O399   2.458       .  S
Zr397       O400   2.508       .  S
Zr397       O403   2.486       .  S
Zr397       O405   2.382       .  S
Zr397       O406   2.392       .  S
Zr397       O407   2.430       .  S
Zr397       O408   2.421       .  S
O398        H454   0.990       .  S
O398        H462   0.990       .  S
O399        C419   1.288       .  A
O400        C421   1.294       .  A
O401       Zr411   2.426       .  S
O401        C420   1.283       .  A
O402       Zr410   2.356       .  S
O402        C421   1.260       .  A
O403        C420   1.295       .  A
O404       Zr412   2.447       .  S
O404        C419   1.286       .  A
O405       Zr410   2.389       .  S
O405       Zr412   2.364       .  S
O406       Zr411   2.380       .  S
O406       Zr412   2.376       .  S
O406        H441   0.967       .  S
O407       Zr410   2.400       .  S
O407       Zr427   2.409       .  S
O407        H444   0.963       .  S
O408       Zr411   2.395       .  S
O408       Zr427   2.412       .  S
Zr409       O434   2.436       .  S
Zr409       O428   2.432       .  S
Zr409       O436   2.446       .  S
Zr409       O424   2.528       .  S
Zr409       O415   2.431       .  S
Zr409       O416   2.404       .  S
Zr409       O417   2.372       .  S
Zr409       O418   2.398       .  S
Zr410       O429   2.439       .  S
Zr410       O422   2.438       .  S
Zr410       O423   2.361       .  S
Zr410       O416   2.381       .  S
Zr410       O417   2.378       .  S
Zr411       O413   2.436   1_554  S
Zr411       O435   2.441       .  S
Zr411       O437   2.406       .  S
Zr411       O415   2.395       .  S
Zr411       O418   2.391       .  S
Zr412       O438   2.439       .  S
Zr412       O439   2.436       .  S
Zr412       O414   2.438       .  S
Zr412       O415   2.402       .  S
Zr412       O416   2.412       .  S
O413        H450   0.991       .  S
O414        H445   0.990       .  S
O414        H459   0.990       .  S
O416        H442   0.967       .  S
O417       Zr427   2.376       .  S
O418       Zr427   2.363       .  S
O418        H443   0.965       .  S
O422        H458   0.990       .  S
O423        C425   1.272       .  A
O424        C425   1.300       .  A
O426       Zr427   2.439       .  S
O426        H455   0.991       .  S
Zr427       O430   2.437       .  S
Zr427       O431   2.441   1_554  S
Zr427       O432   2.457       .  S
O428        C433   1.284       .  A
O429        H446   0.989       .  S
O429        H461   0.990       .  S
O430        H447   0.990   1_545  S
O431        H451   0.990       .  S
O431        H460   0.990       .  S
O432        C433   1.287       .  A
O434        H453   0.990       .  S
O434        H457   0.990       .  S
O435        H449   0.990       .  S
O435        H456   0.990       .  S
O436        C440   1.287       .  A
O437        C440   1.280       .  A
O438        H448   0.990       .  S
O439        H452   0.990       .  S
Zr463       O464   2.436       .  S
Zr463       O465   2.431       .  S
Zr463       O466   2.550       .  S
Zr463       O469   2.462       .  S
Zr463       O471   2.373       .  S
Zr463       O472   2.402       .  S
Zr463       O473   2.406       .  S
Zr463       O474   2.438       .  S
O464        H520   0.990       .  S
O464        H528   0.990       .  S
O465        C485   1.282       .  A
O466        C487   1.306       .  A
O467       Zr477   2.452       .  S
O467        C486   1.291       .  A
O468       Zr476   2.356       .  S
O468        C487   1.269       .  A
O469        C486   1.290       .  A
O470       Zr478   2.492       .  S
O470        C485   1.297       .  A
O471       Zr476   2.383       .  S
O471       Zr478   2.376       .  S
O472       Zr477   2.387       .  S
O472       Zr478   2.343       .  S
O472        H507   0.964       .  S
O473       Zr476   2.383       .  S
O473       Zr493   2.407       .  S
O473        H510   0.968       .  S
O474       Zr477   2.405       .  S
O474       Zr493   2.410       .  S
Zr475       O500   2.438       .  S
Zr475       O494   2.483       .  S
Zr475       O502   2.470       .  S
Zr475       O490   2.524       .  S
Zr475       O481   2.438       .  S
Zr475       O482   2.420       .  S
Zr475       O483   2.377       .  S
Zr475       O484   2.394       .  S
Zr476       O495   2.441       .  S
Zr476       O488   2.437       .  S
Zr476       O489   2.348       .  S
Zr476       O482   2.381       .  S
Zr476       O483   2.385       .  S
Zr477       O479   2.435       .  S
Zr477       O501   2.438       .  S
Zr477       O503   2.456       .  S
Zr477       O481   2.394       .  S
Zr477       O484   2.384       .  S
Zr478       O504   2.436       .  S
Zr478       O505   2.436       .  S
Zr478       O480   2.436   1_565  S
Zr478       O481   2.420       .  S
Zr478       O482   2.417       .  S
O479        H516   0.990       .  S
O480        H511   0.990       .  S
O480        H525   0.990       .  S
O482        H508   0.964       .  S
O483       Zr493   2.377       .  S
O484       Zr493   2.370       .  S
O484        H509   0.969       .  S
C485        C603   1.492       .  S
C486        C611   1.481       .  S
C487        C623   1.501       .  S
O488        H524   0.990       .  S
O489        C491   1.269       .  A
O490        C491   1.301       .  A
O492       Zr493   2.438       .  S
O492        H521   0.991       .  S
Zr493       O496   2.440       .  S
Zr493       O497   2.438       .  S
Zr493       O498   2.449       .  S
O494        C499   1.293       .  A
O495        H512   0.989       .  S
O495        H527   0.990       .  S
O496        H513   0.990       .  S
O497        H517   0.990       .  S
O497        H526   0.990       .  S
O498        C499   1.287       .  A
C499        C635   1.499       .  S
O500        H519   0.990       .  S
O500        H523   0.990       .  S
O501        H515   0.990       .  S
O501        H522   0.990       .  S
O502        C506   1.290       .  A
O503        C506   1.291       .  A
O504        H514   0.990       .  S
O505        H518   0.990       .  S
C506        C641   1.496       .  S
Zr529       O530   2.436       .  S
Zr529       O531   2.428       .  S
Zr529       O532   2.535       .  S
Zr529       O535   2.478       .  S
Zr529       O537   2.381       .  S
Zr529       O538   2.396       .  S
Zr529       O539   2.409       .  S
Zr529       O540   2.432       .  S
O530        H586   0.990       .  S
O530        H594   0.990       .  S
O531        C551   1.282       .  A
O532        C553   1.304       .  A
O533       Zr543   2.462       .  S
O533        C552   1.291       .  A
O534       Zr542   2.364       .  S
O534        C553   1.269       .  A
O535        C552   1.292       .  A
O536       Zr544   2.465       .  S
O536        C551   1.292       .  A
O537       Zr542   2.389       .  S
O537       Zr544   2.371       .  S
O538       Zr543   2.370       .  S
O538       Zr544   2.351       .  S
O538        H573   0.964       .  S
O539       Zr542   2.387       .  S
O539       Zr559   2.411       .  S
O539        H576   0.968       .  S
O540       Zr543   2.397       .  S
O540       Zr559   2.415       .  S
Zr541       O566   2.436       .  S
Zr541       O560   2.471       .  S
Zr541       O568   2.490       .  S
Zr541       O556   2.556       .  S
Zr541       O547   2.428       .  S
Zr541       O548   2.420       .  S
Zr541       O549   2.373       .  S
Zr541       O550   2.405       .  S
Zr542       O561   2.441       .  S
Zr542       O554   2.436       .  S
Zr542       O555   2.364       .  S
Zr542       O548   2.394       .  S
Zr542       O549   2.384       .  S
Zr543       O545   2.433   1_565  S
Zr543       O567   2.439       .  S
Zr543       O569   2.430       .  S
Zr543       O547   2.402       .  S
Zr543       O550   2.401       .  S
Zr544       O570   2.436       .  S
Zr544       O571   2.435       .  S
Zr544       O546   2.436       .  S
Zr544       O547   2.400       .  S
Zr544       O548   2.419       .  S
O545        H582   0.990       .  S
O546        H577   0.990       .  S
O546        H591   0.989       .  S
O548        H574   0.965       .  S
O549       Zr559   2.376       .  S
O550       Zr559   2.377       .  S
O550        H575   0.962       .  S
C551        C609   1.476       .  S
C552        C605   1.497       .  S
C553        C597   1.490       .  S
O554        H590   0.990       .  S
O555        C557   1.270       .  A
O556        C557   1.307       .  A
C557        C617   1.504       .  S
O558       Zr559   2.436       .  S
O558        H587   0.990       .  S
Zr559       O562   2.437       .  S
Zr559       O563   2.437   1_565  S
Zr559       O564   2.448       .  S
O560        C565   1.290       .  A
O561        H578   0.990   1_455  S
O561        H593   0.990       .  S
O562        H579   0.990   1_455  S
O563        H583   0.990       .  S
O563        H592   0.989       .  S
O564        C565   1.286       .  A
O566        H585   0.990       .  S
O566        H589   0.990       .  S
O567        H581   0.990       .  S
O567        H588   0.990       .  S
O568        C572   1.297       .  A
O569        C572   1.283       .  A
O570        H580   0.990       .  S
O571        H584   0.990       .  S
C595       C1545   1.440       .  S
C595        N596   1.361       .  A
C595        N600   1.360   1_455  A
N596        C597   1.349       .  A
C597        N598   1.368       .  A
N598        C599   1.369   1_455  A
C599        N600   1.347       .  A
C601       C1521   1.484       .  S
C601        N602   1.358       .  A
C601        N606   1.356       .  A
N602        C603   1.359   1_545  A
C603        N604   1.379       .  A
N604        C605   1.375       .  A
C605        N606   1.355   1_565  A
C607       C1505   1.455       .  S
C607        N608   1.350       .  A
C607        N612   1.349       .  A
N608        C609   1.351       .  A
C609        N610   1.375       .  A
N610        C611   1.374       .  A
C611        N612   1.353       .  A
C613       C1497   1.463       .  S
C613        N614   1.369       .  A
C613        N618   1.370   1_655  A
N614        C615   1.350       .  A
C615        N616   1.368   1_655  A
N616        C617   1.369       .  A
C617        N618   1.357       .  A
C619       C1481   1.456       .  S
C619        N620   1.365   1_565  A
C619        N624   1.371       .  A
N620        C621   1.348       .  A
C621        N622   1.363   1_545  A
N622        C623   1.367       .  A
C623        N624   1.356       .  A
C625       C1465   1.463       .  S
C625        N626   1.360       .  A
C625        N630   1.357   1_554  A
N626        C627   1.358       .  A
C627        N628   1.361       .  A
N628        C629   1.364   1_554  A
C629        N630   1.348       .  A
C631       C1441   1.479       .  S
C631        N632   1.355       .  A
C631        N636   1.364       .  A
N632        C633   1.346       .  A
C633        N634   1.374       .  A
N634        C635   1.368       .  A
C635        N636   1.363       .  A
C637       C1433   1.444       .  S
C637        N638   1.352       .  A
C637        N642   1.350       .  A
N638        C639   1.347       .  A
C639        N640   1.383       .  A
N640        C641   1.375       .  A
C641        N642   1.352       .  A
C643       C1409   1.441       .  S
C643        N644   1.351       .  A
C643        N648   1.343       .  A
N644        C645   1.350       .  A
C645        N646   1.372       .  A
N646        C647   1.372       .  A
C647        N648   1.343       .  A
C649       C1401   1.465       .  S
C649        N650   1.354       .  A
C649        N654   1.355       .  A
N650        C651   1.355       .  A
C651        N652   1.370       .  A
N652        C653   1.368       .  A
C653        N654   1.353       .  A
C655       C1377   1.481       .  S
C655        N656   1.355       .  A
C655        N660   1.360       .  A
N656        C657   1.356       .  A
C657        N658   1.361       .  A
N658        C659   1.364       .  A
C659        N660   1.361       .  A
C661       C1369   1.474       .  S
C661        N662   1.351       .  A
C661        N666   1.354       .  A
N662        C663   1.354       .  A
C663        N664   1.375       .  A
N664        C665   1.374       .  A
C665        N666   1.360       .  A
C667       C1345   1.473       .  S
C667        N668   1.350       .  A
C667        N672   1.354       .  A
N668        C669   1.353       .  A
C669        N670   1.370       .  A
N670        C671   1.373       .  A
C671        N672   1.360       .  A
Zr673       O674   2.433       .  S
Zr673       O675   2.432       .  S
Zr673       O676   2.461       .  S
Zr673       O679   2.520       .  S
Zr673       O681   2.383       .  S
Zr673       O682   2.386       .  S
Zr673       O683   2.427       .  S
Zr673       O684   2.414       .  S
O674        H730   0.990       .  S
O674        H738   0.990       .  S
O675        C695   1.282       .  A
O676        C697   1.290       .  A
O677       Zr687   2.363       .  S
O677        C696   1.264       .  A
O678       Zr686   2.395       .  S
O678        C697   1.278       .  A
O679        C696   1.298       .  A
O680       Zr688   2.476       .  S
O680        C695   1.292       .  A
O681       Zr686   2.381       .  S
O681       Zr688   2.349       .  S
O682       Zr687   2.391       .  S
O682       Zr688   2.368       .  S
O682        H717   0.964       .  S
O683       Zr686   2.397       .  S
O683       Zr703   2.395       .  S
O683        H720   0.967       .  S
O684       Zr687   2.389       .  S
O684       Zr703   2.409       .  S
Zr685       O710   2.436       .  S
Zr685       O704   2.485       .  S
Zr685       O712   2.534       .  S
Zr685       O700   2.508       .  S
Zr685       O691   2.423       .  S
Zr685       O692   2.431       .  S
Zr685       O693   2.394       .  S
Zr685       O694   2.387       .  S
Zr686       O705   2.437       .  S
Zr686       O698   2.437       .  S
Zr686       O699   2.403       .  S
Zr686       O692   2.398       .  S
Zr686       O693   2.383       .  S
Zr687       O689   2.440       .  S
Zr687       O711   2.440       .  S
Zr687       O713   2.348       .  S
Zr687       O691   2.389       .  S
Zr687       O694   2.403       .  S
Zr688       O714   2.436       .  S
Zr688       O715   2.436       .  S
Zr688       O690   2.437       .  S
Zr688       O691   2.423       .  S
Zr688       O692   2.405       .  S
O689        H726   0.989       .  S
O690        H721   0.990       .  S
O690        H735   0.990       .  S
O692        H718   0.965       .  S
O693       Zr703   2.378       .  S
O694       Zr703   2.367       .  S
O694        H719   0.964       .  S
C695       C1265   1.484       .  S
C696       C1323   1.487       .  S
C697       C1271   1.459       .  S
O698        H734   0.990       .  S
O699        C701   1.278       .  A
O700        C701   1.299       .  A
C701       C1245   1.483       .  S
O702       Zr703   2.440       .  S
O702        H731   0.990       .  S
Zr703       O706   2.436       .  S
Zr703       O707   2.439       .  S
Zr703       O708   2.439       .  S
O704        C709   1.294       .  A
O705        H722   0.990       .  S
O705        H737   0.990       .  S
O706        H723   0.990       .  S
O707        H727   0.990       .  S
O707        H736   0.990       .  S
O708        C709   1.284       .  A
C709       C1253   1.490       .  S
O710        H729   0.990       .  S
O710        H733   0.990       .  S
O711        H725   0.990       .  S
O711        H732   0.990       .  S
O712        C716   1.300       .  A
O713        C716   1.259       .  A
O714        H724   0.990       .  S
O715        H728   0.990       .  S
C716        C957   1.481       .  S
Zr739       O740   2.436       .  S
Zr739       O741   2.441       .  S
Zr739       O742   2.466       .  S
Zr739       O745   2.534       .  S
Zr739       O747   2.398       .  S
Zr739       O748   2.377       .  S
Zr739       O749   2.427       .  S
Zr739       O750   2.403       .  S
O740        H796   0.990       .  S
O740        H804   0.991       .  S
O741        C761   1.286       .  A
O742        C763   1.291       .  A
O743       Zr753   2.382       .  S
O743        C762   1.274       .  A
O744       Zr752   2.418       .  S
O744        C763   1.282       .  A
O745        C762   1.304       .  A
O746       Zr754   2.419       .  S
O746        C761   1.281       .  A
O747       Zr752   2.387       .  S
O747       Zr754   2.369       .  S
O748       Zr753   2.373       .  S
O748       Zr754   2.377       .  S
O748        H783   0.967       .  S
O749       Zr752   2.402       .  S
O749       Zr769   2.402       .  S
O749        H786   0.965       .  S
O750       Zr753   2.365       .  S
O750       Zr769   2.399       .  S
Zr751       O776   2.440   1_545  S
Zr751       O770   2.424       .  S
Zr751       O778   2.526       .  S
Zr751       O766   2.506       .  S
Zr751       O757   2.404       .  S
Zr751       O758   2.417       .  S
Zr751       O759   2.387       .  S
Zr751       O760   2.399       .  S
Zr752       O771   2.441       .  S
Zr752       O764   2.435       .  S
Zr752       O765   2.432       .  S
Zr752       O758   2.395       .  S
Zr752       O759   2.376       .  S
Zr753       O755   2.432       .  S
Zr753       O777   2.444       .  S
Zr753       O779   2.334       .  S
Zr753       O757   2.388       .  S
Zr753       O760   2.385       .  S
Zr754       O780   2.433       .  S
Zr754       O781   2.434       .  S
Zr754       O756   2.437       .  S
Zr754       O757   2.381       .  S
Zr754       O758   2.408       .  S
O755        H792   0.989       .  S
O756        H787   0.991       .  S
O756        H801   0.990       .  S
O758        H784   0.964       .  S
O759       Zr769   2.369       .  S
O760       Zr769   2.378       .  S
O760        H785   0.966       .  S
C761        C807   1.464       .  S
C762       C1295   1.505       .  S
C763       C1317   1.472       .  S
O764        H800   0.990       .  S
O765        C767   1.285       .  A
O766        C767   1.298       .  A
C767       C1311   1.502       .  S
O768       Zr769   2.437       .  S
O768        H797   0.990       .  S
Zr769       O772   2.436       .  S
Zr769       O773   2.440       .  S
Zr769       O774   2.431       .  S
O770        C775   1.282       .  A
O771        H788   0.990       .  S
O771        H803   0.990       .  S
O772        H789   0.990       .  S
O773        H793   0.989       .  S
O773        H802   0.990       .  S
O774        C775   1.285       .  A
C775       C1283   1.460       .  S
O776        H795   0.990       .  S
O776        H799   0.990       .  S
O777        H791   0.991       .  S
O777        H798   0.990       .  S
O778        C782   1.302       .  A
O779        C782   1.267       .  A
O780        H790   0.990       .  S
O781        H794   0.990       .  S
C782       C1257   1.481       .  S
C805       C1673   1.482       .  S
C805        N806   1.358       .  A
C805        N810   1.358       .  A
N806        C807   1.360       .  A
C807        N808   1.360       .  A
N808        C809   1.359       .  A
C809        C835   1.464       .  S
C809        N810   1.359       .  A
Zr811       O812   2.436       .  S
Zr811       O813   2.455       .  S
Zr811       O814   2.440       .  S
Zr811       O817   2.501       .  S
Zr811       O819   2.395       .  S
Zr811       O820   2.374       .  S
Zr811       O821   2.432       .  S
Zr811       O822   2.413       .  S
O812        H868   0.990       .  S
O812        H876   0.990       .  S
O813        C833   1.288       .  A
O814        C835   1.286       .  A
O815       Zr825   2.415       .  S
O815        C834   1.283       .  A
O816       Zr824   2.429       .  S
O816        C835   1.285       .  A
O817        C834   1.296       .  A
O818       Zr826   2.443       .  S
O818        C833   1.285       .  A
O819       Zr824   2.395       .  S
O819       Zr826   2.368       .  S
O820       Zr825   2.381       .  S
O820       Zr826   2.375       .  S
O820        H855   0.967       .  S
O821       Zr824   2.399       .  S
O821       Zr841   2.401       .  S
O821        H858   0.972       .  S
O822       Zr825   2.371       .  S
O822       Zr841   2.409       .  S
Zr823       O848   2.440       .  S
Zr823       O842   2.453       .  S
Zr823       O850   2.515       .  S
Zr823       O838   2.505       .  S
Zr823       O829   2.415       .  S
Zr823       O830   2.427       .  S
Zr823       O831   2.390       .  S
Zr823       O832   2.395       .  S
Zr824       O843   2.438       .  S
Zr824       O836   2.435       .  S
Zr824       O837   2.438       .  S
Zr824       O830   2.404       .  S
Zr824       O831   2.384       .  S
Zr825       O827   2.434       .  S
Zr825       O849   2.438       .  S
Zr825       O851   2.379       .  S
Zr825       O829   2.397       .  S
Zr825       O832   2.392       .  S
Zr826       O852   2.437       .  S
Zr826       O853   2.435       .  S
Zr826       O828   2.439       .  S
Zr826       O829   2.400       .  S
Zr826       O830   2.412       .  S
O827        H864   0.989       .  S
O828        H859   0.990       .  S
O828        H873   0.990       .  S
O830        H856   0.965       .  S
O831       Zr841   2.372       .  S
O832       Zr841   2.376       .  S
O832        H857   0.967       .  S
C833       C1319   1.483       .  S
C834        C879   1.501       .  S
O836        H872   0.990       .  S
O837        C839   1.285       .  A
O838        C839   1.296       .  A
C839       C1325   1.501       .  S
O840       Zr841   2.440       .  S
O840        H869   0.990       .  S
Zr841       O844   2.438       .  S
Zr841       O845   2.441       .  S
Zr841       O846   2.449       .  S
O842        C847   1.288       .  A
O843        H860   0.990       .  S
O843        H875   0.990       .  S
O844        H861   0.990       .  S
O845        H865   0.990       .  S
O845        H874   0.990       .  S
O846        C847   1.287       .  A
C847        C959   1.480       .  S
O848        H867   0.991       .  S
O848        H871   0.990       .  S
O849        H863   0.989       .  S
O849        H870   0.990       .  S
O850        C854   1.299       .  A
O851        C854   1.273       .  A
O852        H862   0.990       .  S
O853        H866   0.990       .  S
C854       C1299   1.486       .  S
C877       C1353   1.476       .  S
C877        N878   1.377       .  A
C877        N882   1.369       .  A
N878        C879   1.365       .  A
C879        N880   1.357       .  A
N880        C881   1.358       .  A
C881        C932   1.487       .  S
C881        N882   1.349       .  A
C883       C1449   1.456       .  S
C883        N884   1.358   1_556  A
C883        N888   1.358   1_556  A
N884        C885   1.358       .  A
C885        C917   1.473       .  S
C885        N886   1.358       .  A
N886        C887   1.367       .  A
C887        C984   1.470       .  S
C887        N888   1.352       .  A
Zr889       O890   2.438       .  S
Zr889       O891   2.432       .  S
Zr889       O892   2.469       .  S
Zr889       O895   2.511       .  S
Zr889       O897   2.388       .  S
Zr889       O898   2.382       .  S
Zr889       O899   2.421       .  S
Zr889       O900   2.404       .  S
O890        H946   0.991       .  S
O890        H954   0.990       .  S
O891        C911   1.283       .  A
O892        C913   1.290       .  A
O893       Zr903   2.347       .  S
O893        C912   1.268       .  A
O894       Zr902   2.385       .  S
O894        C913   1.274       .  A
O895        C912   1.300       .  A
O896       Zr904   2.448       .  S
O896        C911   1.286       .  A
O897       Zr902   2.385       .  S
O897       Zr904   2.366       .  S
O898       Zr903   2.376       .  S
O898       Zr904   2.369       .  S
O898        H933   0.968       .  S
O899       Zr902   2.398       .  S
O899       Zr919   2.399       .  S
O899        H936   0.965       .  S
O900       Zr903   2.385       .  S
O900       Zr919   2.394       .  S
Zr901       O926   2.437       .  S
Zr901       O920   2.462       .  S
Zr901       O928   2.529       .  S
Zr901       O916   2.495       .  S
Zr901       O907   2.421       .  S
Zr901       O908   2.430       .  S
Zr901       O909   2.395       .  S
Zr901       O910   2.387       .  S
Zr902       O921   2.435       .  S
Zr902       O914   2.437       .  S
Zr902       O915   2.400       .  S
Zr902       O908   2.401       .  S
Zr902       O909   2.381       .  S
Zr903       O905   2.437       .  S
Zr903       O927   2.439       .  S
Zr903       O929   2.348       .  S
Zr903       O907   2.378       .  S
Zr903       O910   2.386       .  S
Zr904       O930   2.434       .  S
Zr904       O931   2.436       .  S
Zr904       O906   2.439       .  S
Zr904       O907   2.413       .  S
Zr904       O908   2.404       .  S
O905        H942   0.990       .  S
O906        H937   0.990       .  S
O906        H951   0.990       .  S
O908        H934   0.963       .  S
O909       Zr919   2.381       .  S
O910       Zr919   2.375       .  S
O910        H935   0.968       .  S
C911       C1307   1.475       .  S
C912       C1301   1.477       .  S
C913       C1287   1.460       .  S
O914        H950   0.989       .  S
O915        C917   1.277       .  A
O916        C917   1.296       .  A
O918       Zr919   2.436       .  S
O918        H947   0.990       .  S
Zr919       O922   2.435       .  S
Zr919       O923   2.439       .  S
Zr919       O924   2.420       .  S
O920        C925   1.289       .  A
O921        H938   0.990       .  S
O921        H953   0.991       .  S
O922        H939   0.990       .  S
O923        H943   0.990       .  S
O923        H952   0.990       .  S
O924        C925   1.281       .  A
C925       C1275   1.476       .  S
O926        H945   0.990       .  S
O926        H949   0.991       .  S
O927        H941   0.990       .  S
O927        H948   0.990       .  S
O928        C932   1.301       .  A
O929        C932   1.268       .  A
O930        H940   0.990       .  S
O931        H944   0.990       .  S
C955       C1513   1.454       .  S
C955        N956   1.360       .  A
C955        N960   1.358       .  A
N956        C957   1.352       .  A
C957        N958   1.373       .  A
N958        C959   1.362       .  A
C959        N960   1.351       .  A
Zr961       O962   2.435   1_554  S
Zr961       O963   2.406       .  S
Zr961       O964   2.447       .  S
Zr961       O967   2.481       .  S
Zr961       O969   2.382       .  S
Zr961       O970   2.391       .  S
Zr961       O971   2.421       .  S
Zr961       O972   2.402       .  S
O962       H1018   0.990       .  S
O962       H1026   0.990   1_556  S
O963        C983   1.279       .  A
O964        C985   1.286       .  A
O965       Zr975   2.371       .  S
O965        C984   1.263       .  A
O966       Zr974   2.432       .  S
O966        C985   1.287       .  A
O967        C984   1.288       .  A
O968       Zr976   2.457       .  S
O968        C983   1.289       .  A
O969       Zr974   2.369       .  S
O969       Zr976   2.355       .  S
O970       Zr975   2.385       .  S
O970       Zr976   2.365       .  S
O970       H1005   0.964       .  S
O971       Zr974   2.398       .  S
O971       Zr991   2.410       .  S
O971       H1008   0.964       .  S
O972       Zr975   2.386       .  S
O972       Zr991   2.397       .  S
Zr973       O998   2.439       .  S
Zr973       O992   2.465       .  S
Zr973      O1000   2.475       .  S
Zr973       O988   2.428       .  S
Zr973       O979   2.401       .  S
Zr973       O980   2.432       .  S
Zr973       O981   2.378       .  S
Zr973       O982   2.382       .  S
Zr974       O993   2.434       .  S
Zr974       O986   2.437       .  S
Zr974       O987   2.423       .  S
Zr974       O980   2.398       .  S
Zr974       O981   2.381       .  S
Zr975       O977   2.437       .  S
Zr975       O999   2.444       .  S
Zr975      O1001   2.364       .  S
Zr975       O979   2.376       .  S
Zr975       O982   2.400       .  S
Zr976      O1002   2.438       .  S
Zr976      O1003   2.435       .  S
Zr976       O978   2.437       .  S
Zr976       O979   2.399       .  S
Zr976       O980   2.413       .  S
O977       H1014   0.990       .  S
O978       H1009   0.990       .  S
O978       H1023   0.989       .  S
O980       H1006   0.966       .  S
O981       Zr991   2.356       .  S
O982       Zr991   2.384       .  S
O982       H1007   0.963       .  S
C983       C1031   1.464       .  S
C985       C1335   1.472   1_554  S
O986       H1022   0.990       .  S
O987        C989   1.284       .  A
O988        C989   1.283       .  A
C989       C1281   1.456       .  S
O990       Zr991   2.438       .  S
O990       H1019   0.990       .  S
Zr991       O994   2.439       .  S
Zr991       O995   2.438       .  S
Zr991       O996   2.449       .  S
O992        C997   1.289       .  A
O993       H1010   0.990       .  S
O993       H1025   0.990       .  S
O994       H1011   0.990       .  S
O995       H1015   0.990       .  S
O995       H1024   0.990       .  S
O996        C997   1.287       .  A
C997       C1313   1.492       .  S
O998       H1017   0.990       .  S
O998       H1021   0.990       .  S
O999       H1013   0.990       .  S
O999       H1020   0.988       .  S
O1000      C1004   1.293       .  A
O1001      C1004   1.265       .  A
O1002      H1012   0.990       .  S
O1003      H1016   0.990       .  S
C1004      C1277   1.460       .  S
C1027      C1721   1.470       .  S
C1027      N1028   1.351       .  A
C1027      N1032   1.356   1_556  A
N1028      C1029   1.352       .  A
C1029      C1133   1.461       .  S
C1029      N1030   1.361       .  A
N1030      C1031   1.367   1_556  A
C1031      N1032   1.358       .  A
Zr1033     O1034   2.435       .  S
Zr1033     O1035   2.440       .  S
Zr1033     O1036   2.478       .  S
Zr1033     O1039   2.561       .  S
Zr1033     O1041   2.395       .  S
Zr1033     O1042   2.378       .  S
Zr1033     O1043   2.435       .  S
Zr1033     O1044   2.409       .  S
O1034      H1090   0.990       .  S
O1034      H1098   0.990       .  S
O1035      C1055   1.285       .  A
O1036      C1057   1.294       .  A
O1037     Zr1047   2.369       .  S
O1037      C1056   1.272       .  A
O1038     Zr1046   2.391       .  S
O1038      C1057   1.276       .  A
O1039      C1056   1.309       .  A
O1040     Zr1048   2.485       .  S
O1040      C1055   1.294       .  A
O1041     Zr1046   2.384       .  S
O1041     Zr1048   2.349       .  S
O1042     Zr1047   2.386       .  S
O1042     Zr1048   2.373       .  S
O1042      H1077   0.966       .  S
O1043     Zr1046   2.410       .  S
O1043     Zr1063   2.394       .  S
O1043      H1080   0.967       .  S
O1044     Zr1047   2.376       .  S
O1044     Zr1063   2.410       .  S
Zr1045     O1070   2.438   1_545  S
Zr1045     O1064   2.484       .  S
Zr1045     O1072   2.506       .  S
Zr1045     O1060   2.483       .  S
Zr1045     O1051   2.425       .  S
Zr1045     O1052   2.435       .  S
Zr1045     O1053   2.384       .  S
Zr1045     O1054   2.383       .  S
Zr1046     O1065   2.439       .  S
Zr1046     O1058   2.434       .  S
Zr1046     O1059   2.424       .  S
Zr1046     O1052   2.392       .  S
Zr1046     O1053   2.384       .  S
Zr1047     O1049   2.436       .  S
Zr1047     O1071   2.438       .  S
Zr1047     O1073   2.350       .  S
Zr1047     O1051   2.390       .  S
Zr1047     O1054   2.389       .  S
Zr1048     O1074   2.437       .  S
Zr1048     O1075   2.436       .  S
Zr1048     O1050   2.438       .  S
Zr1048     O1051   2.422       .  S
Zr1048     O1052   2.418       .  S
O1049      H1086   0.990       .  S
O1050      H1081   0.990       .  S
O1050      H1095   0.990       .  S
O1052      H1078   0.965       .  S
O1053     Zr1063   2.368       .  S
O1054     Zr1063   2.369       .  S
O1054      H1079   0.964       .  S
C1055      C1263   1.492       .  S
C1056      C1293   1.508       .  S
C1057      C1269   1.461       .  S
O1058      H1094   0.990       .  S
O1059      C1061   1.283       .  A
O1060      C1061   1.294       .  A
C1061      C1341   1.487       .  S
O1062     Zr1063   2.436       .  S
O1062      H1091   0.990       .  S
Zr1063     O1066   2.433       .  S
Zr1063     O1067   2.443       .  S
Zr1063     O1068   2.438       .  S
O1064      C1069   1.289       .  A
O1065      H1082   0.990       .  S
O1065      H1097   0.990       .  S
O1066      H1083   0.990       .  S
O1067      H1087   0.991       .  S
O1067      H1096   0.989       .  S
O1068      C1069   1.288       .  A
C1069      C1103   1.504       .  S
O1070      H1089   0.991       .  S
O1070      H1093   0.990       .  S
O1071      H1085   0.990       .  S
O1071      H1092   0.990       .  S
O1072      C1076   1.299       .  A
O1073      C1076   1.269       .  A
O1074      H1084   0.990       .  S
O1075      H1088   0.990       .  S
C1076      C1259   1.472       .  S
C1099      C1657   1.444       .  S
C1099      N1100   1.352   1_545  A
C1099      N1104   1.346       .  A
N1100      C1101   1.351       .  A
C1101      C1148   1.496       .  S
C1101      N1102   1.389       .  A
N1102      C1103   1.379   1_565  A
C1103      N1104   1.350       .  A
Zr1105     O1106   2.436       .  S
Zr1105     O1107   2.399       .  S
Zr1105     O1108   2.476       .  S
Zr1105     O1111   2.518       .  S
Zr1105     O1113   2.381       .  S
Zr1105     O1114   2.384       .  S
Zr1105     O1115   2.421       .  S
Zr1105     O1116   2.397       .  S
O1106      H1162   0.990       .  S
O1106      H1170   0.990       .  S
O1107      C1127   1.281       .  A
O1108      C1129   1.292       .  A
O1109     Zr1119   2.331       .  S
O1109      C1128   1.264       .  A
O1110     Zr1118   2.410       .  S
O1110      C1129   1.281       .  A
O1111      C1128   1.302       .  A
O1112     Zr1120   2.474       .  S
O1112      C1127   1.289       .  A
O1113     Zr1118   2.361       .  S
O1113     Zr1120   2.345       .  S
O1114     Zr1119   2.379       .  S
O1114     Zr1120   2.374       .  S
O1114      H1149   0.966       .  S
O1115     Zr1118   2.390       .  S
O1115     Zr1135   2.402       .  S
O1115      H1152   0.966       .  S
O1116     Zr1119   2.391       .  S
O1116     Zr1135   2.416       .  S
Zr1117     O1142   2.436       .  S
Zr1117     O1136   2.429       .  S
Zr1117     O1144   2.528       .  S
Zr1117     O1132   2.463       .  S
Zr1117     O1123   2.419       .  S
Zr1117     O1124   2.440       .  S
Zr1117     O1125   2.393       .  S
Zr1117     O1126   2.395       .  S
Zr1118     O1137   2.434       .  S
Zr1118     O1130   2.437       .  S
Zr1118     O1131   2.398       .  S
Zr1118     O1124   2.405       .  S
Zr1118     O1125   2.370       .  S
Zr1119     O1121   2.435       .  S
Zr1119     O1143   2.442       .  S
Zr1119     O1145   2.367       .  S
Zr1119     O1123   2.384       .  S
Zr1119     O1126   2.395       .  S
Zr1120     O1146   2.437       .  S
Zr1120     O1147   2.436       .  S
Zr1120     O1122   2.437       .  S
Zr1120     O1123   2.419       .  S
Zr1120     O1124   2.400       .  S
O1121      H1158   0.990       .  S
O1122      H1153   0.990       .  S
O1122      H1167   0.989       .  S
O1124      H1150   0.968       .  S
O1125     Zr1135   2.355       .  S
O1126     Zr1135   2.361       .  S
O1126      H1151   0.965       .  S
C1127      C1239   1.462       .  S
C1128      C1343   1.473       .  S
C1129      C1331   1.473       .  S
O1130      H1166   0.990       .  S
O1131      C1133   1.279       .  A
O1132      C1133   1.290       .  A
O1134     Zr1135   2.435       .  S
O1134      H1163   0.990       .  S
Zr1135     O1138   2.435       .  S
Zr1135     O1139   2.441       .  S
Zr1135     O1140   2.466       .  S
O1136      C1141   1.282       .  A
O1137      H1154   0.990       .  S
O1137      H1169   0.990       .  S
O1138      H1155   0.990       .  S
O1139      H1159   0.990       .  S
O1139      H1168   0.990   1_565  S
O1140      C1141   1.291       .  A
C1141      C1337   1.476       .  S
O1142      H1161   0.990       .  S
O1142      H1165   0.990       .  S
O1143      H1157   0.990       .  S
O1143      H1164   0.991       .  S
O1144      C1148   1.300       .  A
O1145      C1148   1.258       .  A
O1146      H1156   0.990       .  S
O1147      H1160   0.990       .  S
Zr1171     O1172   2.437       .  S
Zr1171     O1173   2.433       .  S
Zr1171     O1174   2.472       .  S
Zr1171     O1177   2.516       .  S
Zr1171     O1179   2.393       .  S
Zr1171     O1180   2.384       .  S
Zr1171     O1181   2.425       .  S
Zr1171     O1182   2.399       .  S
O1172      H1228   0.990       .  S
O1172      H1236   0.990       .  S
O1173      C1193   1.284       .  A
O1174      C1195   1.292       .  A
O1175     Zr1185   2.349       .  S
O1175      C1194   1.263       .  A
O1176     Zr1184   2.385       .  S
O1176      C1195   1.275       .  A
O1177      C1194   1.299       .  A
O1178     Zr1186   2.467       .  S
O1178      C1193   1.290       .  A
O1179     Zr1184   2.381       .  S
O1179     Zr1186   2.362       .  S
O1180     Zr1185   2.381       .  S
O1180     Zr1186   2.370       .  S
O1180      H1215   0.970       .  S
O1181     Zr1184   2.404       .  S
O1181     Zr1201   2.405       .  S
O1181      H1218   0.966       .  S
O1182     Zr1185   2.389       .  S
O1182     Zr1201   2.403       .  S
Zr1183     O1208   2.432       .  S
Zr1183     O1202   2.406       .  S
Zr1183     O1210   2.508       .  S
Zr1183     O1198   2.460       .  S
Zr1183     O1189   2.410       .  S
Zr1183     O1190   2.429       .  S
Zr1183     O1191   2.379       .  S
Zr1183     O1192   2.378       .  S
Zr1184     O1203   2.440       .  S
Zr1184     O1196   2.436       .  S
Zr1184     O1197   2.415       .  S
Zr1184     O1190   2.392       .  S
Zr1184     O1191   2.357       .  S
Zr1185     O1187   2.437       .  S
Zr1185     O1209   2.437       .  S
Zr1185     O1211   2.350       .  S
Zr1185     O1189   2.373       .  S
Zr1185     O1192   2.381       .  S
Zr1186     O1212   2.437       .  S
Zr1186     O1213   2.434       .  S
Zr1186     O1188   2.436   1_556  S
Zr1186     O1189   2.411       .  S
Zr1186     O1190   2.418       .  S
O1187      H1224   0.990       .  S
O1188      H1219   0.991       .  S
O1188      H1233   0.990       .  S
O1190      H1216   0.965       .  S
O1191     Zr1201   2.348       .  S
O1192     Zr1201   2.365       .  S
O1192      H1217   0.965       .  S
C1193      C1305   1.478       .  S
C1194      C1251   1.473       .  S
C1195      C1289   1.461       .  S
O1196      H1232   0.991   1_556  S
O1197      C1199   1.282       .  A
O1198      C1199   1.289       .  A
C1199      C1329   1.469       .  S
O1200     Zr1201   2.440       .  S
O1200      H1229   0.990       .  S
Zr1201     O1204   2.438       .  S
Zr1201     O1205   2.442       .  S
Zr1201     O1206   2.458       .  S
O1202      C1207   1.278       .  A
O1203      H1220   0.990       .  S
O1203      H1235   0.990       .  S
O1204      H1221   0.990       .  S
O1205      H1225   0.990       .  S
O1205      H1234   0.990       .  S
O1206      C1207   1.291       .  A
C1207      C1241   1.465       .  S
O1208      H1227   0.990       .  S
O1208      H1231   0.990   1_455  S
O1209      H1223   0.991       .  S
O1209      H1230   0.990       .  S
O1210      C1214   1.299       .  A
O1211      C1214   1.269       .  A
O1212      H1222   0.990       .  S
O1213      H1226   0.990       .  S
C1214      C1247   1.471       .  S
C1237      C1537   1.450       .  S
C1237      N1238   1.344   1_455  A
C1237      N1242   1.348       .  A
N1238      C1239   1.342       .  A
C1239      N1240   1.369   1_655  A
N1240      C1241   1.374       .  A
C1241      N1242   1.353       .  A
C1243      C1385   1.469       .  S
C1243      N1244   1.365   1_655  A
C1243      N1248   1.362       .  A
N1244      C1245   1.363       .  A
C1245      N1246   1.353       .  A
N1246      C1247   1.366       .  A
C1247      N1248   1.353   1_455  A
C1249      C1393   1.471       .  S
C1249      N1250   1.359       .  A
C1249      N1254   1.367       .  A
N1250      C1251   1.347       .  A
C1251      N1252   1.368       .  A
N1252      C1253   1.360       .  A
C1253      N1254   1.363       .  A
C1255      C1417   1.443       .  S
C1255      N1256   1.366       .  A
C1255      N1260   1.358       .  A
N1256      C1257   1.355   1_565  A
C1257      N1258   1.367       .  A
N1258      C1259   1.354       .  A
C1259      N1260   1.334   1_545  A
C1261      C1561   1.474       .  S
C1261      N1262   1.359   1_455  A
C1261      N1266   1.353       .  A
N1262      C1263   1.358       .  A
C1263      N1264   1.377       .  A
N1264      C1265   1.374   1_655  A
C1265      N1266   1.349       .  A
C1267      C1569   1.484       .  S
C1267      N1268   1.357       .  A
C1267      N1272   1.355   1_655  A
N1268      C1269   1.361       .  A
C1269      N1270   1.361       .  A
N1270      C1271   1.361   1_655  A
C1271      N1272   1.357       .  A
C1273      C1425   1.468       .  S
C1273      N1274   1.360       .  A
C1273      N1278   1.354       .  A
N1274      C1275   1.359       .  A
C1275      N1276   1.359       .  A
N1276      C1277   1.365       .  A
C1277      N1278   1.344       .  A
C1279      C1633   1.467       .  S
C1279      N1280   1.351       .  A
C1279      N1284   1.354   1_565  A
N1280      C1281   1.353       .  A
C1281      N1282   1.362       .  A
N1282      C1283   1.363   1_565  A
C1283      N1284   1.353       .  A
C1285      C1609   1.480       .  S
C1285      N1286   1.357       .  A
C1285      N1290   1.354   1_554  A
N1286      C1287   1.361       .  A
C1287      N1288   1.361       .  A
N1288      C1289   1.360   1_554  A
C1289      N1290   1.360       .  A
C1291      C1361   1.477       .  S
C1291      N1292   1.374       .  A
C1291      N1296   1.373       .  A
N1292      C1293   1.357       .  A
C1293      N1294   1.366       .  A
N1294      C1295   1.364       .  A
C1295      N1296   1.357       .  A
C1297      C1705   1.453       .  S
C1297      N1298   1.368       .  A
C1297      N1302   1.361       .  A
N1298      C1299   1.355       .  A
C1299      N1300   1.361       .  A
N1300      C1301   1.361       .  A
C1301      N1302   1.344       .  A
C1303      C1617   1.476       .  S
C1303      N1304   1.359   1_554  A
C1303      N1308   1.359       .  A
N1304      C1305   1.356       .  A
C1305      N1306   1.365   1_556  A
N1306      C1307   1.366       .  A
C1307      N1308   1.357       .  A
C1309      C1585   1.495   1_565  S
C1309      N1310   1.363   1_565  A
C1309      N1314   1.357       .  A
N1310      C1311   1.370       .  A
C1311      N1312   1.373   1_545  A
N1312      C1313   1.373       .  A
C1313      N1314   1.360       .  A
C1315      C1689   1.494       .  S
C1315      N1316   1.359       .  A
C1315      N1320   1.365       .  A
N1316      C1317   1.361       .  A
C1317      N1318   1.361       .  A
N1318      C1319   1.363       .  A
C1319      N1320   1.366       .  A
C1321      C1529   1.463       .  S
C1321      N1322   1.357       .  A
C1321      N1326   1.360       .  A
N1322      C1323   1.352       .  A
C1323      N1324   1.378       .  A
N1324      C1325   1.370       .  A
C1325      N1326   1.360       .  A
C1327      C1489   1.469   1_556  S
C1327      N1328   1.349       .  A
C1327      N1332   1.351   1_455  A
N1328      C1329   1.352       .  A
C1329      N1330   1.371       .  A
N1330      C1331   1.372   1_455  A
C1331      N1332   1.358       .  A
C1333      C1457   1.458   1_565  S
C1333      N1334   1.347   1_556  A
C1333      N1338   1.353       .  A
N1334      C1335   1.349   1_554  A
C1335      N1336   1.369       .  A
N1336      C1337   1.374       .  A
C1337      N1338   1.358       .  A
C1339      C1473   1.462       .  S
C1339      N1340   1.361   1_465  A
C1339      N1344   1.359   1_455  A
N1340      C1341   1.357       .  A
C1341      N1342   1.358   1_545  A
N1342      C1343   1.371       .  A
C1343      N1344   1.349       .  A
C1345      C1346   1.403       .  A
C1345      C1350   1.409       .  A
C1346      C1347   1.389       .  A
C1346      H1355   1.083       .  S
C1347      C1348   1.398       .  A
C1347      H1356   1.084       .  S
C1348      C1354   1.396       .  A
C1348      C1349   1.414       .  A
C1349      C1351   1.407       .  A
C1349      C1350   1.409       .  A
C1350      H1357   1.084       .  S
C1351      C1352   1.405       .  A
C1351      H1358   1.083       .  S
C1352      C1353   1.404       .  A
C1352      H1359   1.083       .  S
C1353      C1354   1.402       .  A
C1354      H1360   1.085       .  S
C1361      C1362   1.405       .  A
C1361      C1366   1.404       .  A
C1362      C1363   1.399       .  A
C1362      H1371   1.083       .  S
C1363      C1364   1.402       .  A
C1363      H1372   1.084       .  S
C1364      C1370   1.404       .  A
C1364      C1365   1.415       .  A
C1365      C1367   1.401       .  A
C1365      C1366   1.402       .  A
C1366      H1373   1.084       .  S
C1367      C1368   1.395       .  A
C1367      H1374   1.084       .  S
C1368      C1369   1.405       .  A
C1368      H1375   1.083       .  S
C1369      C1370   1.405       .  A
C1370      H1376   1.084       .  S
C1377      C1378   1.405       .  A
C1377      C1382   1.409       .  A
C1378      C1379   1.397       .  A
C1378      H1387   1.083       .  S
C1379      C1380   1.402       .  A
C1379      H1388   1.084       .  S
C1380      C1386   1.402       .  A
C1380      C1381   1.413       .  A
C1381      C1383   1.405       .  A
C1381      C1382   1.404       .  A
C1382      H1389   1.084       .  S
C1383      C1384   1.400       .  A
C1383      H1390   1.084       .  S
C1384      C1385   1.402       .  A
C1384      H1391   1.083       .  S
C1385      C1386   1.403       .  A
C1386      H1392   1.085       .  S
C1393      C1394   1.406       .  A
C1393      C1398   1.404       .  A
C1394      C1395   1.390       .  A
C1394      H1403   1.083       .  S
C1395      C1396   1.397       .  A
C1395      H1404   1.084       .  S
C1396      C1402   1.396       .  A
C1396      C1397   1.415       .  A
C1397      C1399   1.404       .  A
C1397      C1398   1.405       .  A
C1398      H1405   1.084       .  S
C1399      C1400   1.400       .  A
C1399      H1406   1.083       .  S
C1400      C1401   1.403       .  A
C1400      H1407   1.083       .  S
C1401      C1402   1.399       .  A
C1402      H1408   1.085       .  S
C1409      C1410   1.398       .  A
C1409      C1414   1.402       .  A
C1410      C1411   1.388       .  A
C1410      H1419   1.083       .  S
C1411      C1412   1.401       .  A
C1411      H1420   1.084       .  S
C1412      C1418   1.380       .  A
C1412      C1413   1.411       .  A
C1413      C1415   1.403       .  A
C1413      C1414   1.384       .  A
C1414      H1421   1.086       .  S
C1415      C1416   1.391       .  A
C1415      H1422   1.084       .  S
C1416      C1417   1.399       .  A
C1416      H1423   1.083       .  S
C1417      C1418   1.400       .  A
C1418      H1424   1.086       .  S
C1425      C1426   1.404       .  A
C1425      C1430   1.403       .  A
C1426      C1427   1.396       .  A
C1426      H1435   1.083       .  S
C1427      C1428   1.402       .  A
C1427      H1436   1.084       .  S
C1428      C1434   1.396       .  A
C1428      C1429   1.414       .  A
C1429      C1431   1.399       .  A
C1429      C1430   1.388       .  A
C1430      H1437   1.084       .  S
C1431      C1432   1.386       .  A
C1431      H1438   1.084       .  S
C1432      C1433   1.398       .  A
C1432      H1439   1.084       .  S
C1433      C1434   1.398       .  A
C1434      H1440   1.085       .  S
C1441      C1442   1.405       .  A
C1441      C1446   1.409       .  A
C1442      C1443   1.398       .  A
C1442      H1451   1.083       .  S
C1443      C1444   1.403       .  A
C1443      H1452   1.084       .  S
C1444      C1450   1.399       .  A
C1444      C1445   1.412       .  A
C1445      C1447   1.404       .  A
C1445      C1446   1.396       .  A
C1446      H1453   1.084       .  S
C1447      C1448   1.396       .  A
C1447      H1454   1.084       .  S
C1448      C1449   1.398       .  A
C1448      H1455   1.083       .  S
C1449      C1450   1.402       .  A
C1450      H1456   1.085       .  S
C1457      C1458   1.402       .  A
C1457      C1462   1.401       .  A
C1458      C1459   1.389       .  A
C1458      H1467   1.084       .  S
C1459      C1460   1.398       .  A
C1459      H1468   1.084       .  S
C1460      C1466   1.392   1_556  A
C1460      C1461   1.415       .  A
C1461      C1463   1.403       .  A
C1461      C1462   1.400       .  A
C1462      H1469   1.084       .  S
C1463      C1464   1.398   1_556  A
C1463      H1470   1.084       .  S
C1464      C1465   1.403       .  A
C1464      H1471   1.083       .  S
C1465      C1466   1.399       .  A
C1466      H1472   1.085       .  S
C1473      C1474   1.403       .  A
C1473      C1478   1.400       .  A
C1474      C1475   1.394       .  A
C1474      H1483   1.083       .  S
C1475      C1476   1.401       .  A
C1475      H1484   1.084   1_565  S
C1476      C1482   1.397       .  A
C1476      C1477   1.416       .  A
C1477      C1479   1.399       .  A
C1477      C1478   1.394       .  A
C1478      H1485   1.085       .  S
C1479      C1480   1.390       .  A
C1479      H1486   1.084       .  S
C1480      C1481   1.402       .  A
C1480      H1487   1.084       .  S
C1481      C1482   1.398       .  A
C1482      H1488   1.085       .  S
C1489      C1490   1.404       .  A
C1489      C1494   1.405   1_455  A
C1490      C1491   1.390       .  A
C1490      H1499   1.083       .  S
C1491      C1492   1.398   1_455  A
C1491      H1500   1.084       .  S
C1492      C1498   1.392       .  A
C1492      C1493   1.414       .  A
C1493      C1495   1.405       .  A
C1493      C1494   1.402       .  A
C1494      H1501   1.084       .  S
C1495      C1496   1.400       .  A
C1495      H1502   1.083       .  S
C1496      C1497   1.403       .  A
C1496      H1503   1.083       .  S
C1497      C1498   1.399       .  A
C1498      H1504   1.085   1_655  S
C1505      C1506   1.401       .  A
C1505      C1510   1.399       .  A
C1506      C1507   1.394       .  A
C1506      H1515   1.083       .  S
C1507      C1508   1.402       .  A
C1507      H1516   1.084       .  S
C1508      C1514   1.395       .  A
C1508      C1509   1.415       .  A
C1509      C1511   1.401       .  A
C1509      C1510   1.393       .  A
C1510      H1517   1.085       .  S
C1511      C1512   1.391       .  A
C1511      H1518   1.084       .  S
C1512      C1513   1.399       .  A
C1512      H1519   1.083       .  S
C1513      C1514   1.401       .  A
C1514      H1520   1.085       .  S
C1521      C1522   1.407       .  A
C1521      C1526   1.407       .  A
C1522      C1523   1.400       .  A
C1522      H1531   1.083       .  S
C1523      C1524   1.403       .  A
C1523      H1532   1.084       .  S
C1524      C1530   1.405       .  A
C1524      C1525   1.414       .  A
C1525      C1527   1.403       .  A
C1525      C1526   1.401       .  A
C1526      H1533   1.084       .  S
C1527      C1528   1.395       .  A
C1527      H1534   1.084       .  S
C1528      C1529   1.399       .  A
C1528      H1535   1.083       .  S
C1529      C1530   1.404       .  A
C1530      H1536   1.085       .  S
C1537      C1538   1.401       .  A
C1537      C1542   1.399   1_455  A
C1538      C1539   1.392       .  A
C1538      H1547   1.083       .  S
C1539      C1540   1.401       .  A
C1539      H1548   1.084       .  S
C1540      C1546   1.389       .  A
C1540      C1541   1.414       .  A
C1541      C1543   1.399   1_455  A
C1541      C1542   1.383   1_455  A
C1542      H1549   1.085       .  S
C1543      C1544   1.386       .  A
C1543      H1550   1.084       .  S
C1544      C1545   1.398   1_655  A
C1544      H1551   1.084       .  S
C1545      C1546   1.397       .  A
C1546      H1552   1.085       .  S
C1553      C1554   1.402       .  A
C1553      C1558   1.396   1_655  A
C1554      C1555   1.399       .  A
C1554      H1563   1.083       .  S
C1555      C1556   1.404       .  A
C1555      H1564   1.084       .  S
C1556      C1562   1.402       .  A
C1556      C1557   1.415   1_655  A
C1557      C1559   1.397       .  A
C1557      C1558   1.394       .  A
C1558      H1565   1.085       .  S
C1559      C1560   1.390       .  A
C1559      H1566   1.084       .  S
C1560      C1561   1.407       .  A
C1560      H1567   1.083       .  S
C1561      C1562   1.406   1_455  A
C1562      H1568   1.084       .  S
C1569      C1570   1.407   1_655  A
C1569      C1574   1.407       .  A
C1570      C1571   1.397       .  A
C1570      H1579   1.083       .  S
C1571      C1572   1.401   1_455  A
C1571      H1580   1.084       .  S
C1572      C1578   1.407       .  A
C1572      C1573   1.416       .  A
C1573      C1575   1.402       .  A
C1573      C1574   1.407       .  A
C1574      H1581   1.084       .  S
C1575      C1576   1.398       .  A
C1575      H1582   1.084       .  S
C1576      C1577   1.404       .  A
C1576      H1583   1.083       .  S
C1577      C1578   1.404       .  A
C1578      H1584   1.084   1_655  S
C1585      C1586   1.408       .  A
C1585      C1590   1.409       .  A
C1586      C1587   1.404       .  A
C1586      H1595   1.083       .  S
C1587      C1588   1.404       .  A
C1587      H1596   1.083       .  S
C1588      C1594   1.418       .  A
C1588      C1589   1.416       .  A
C1589      C1591   1.402       .  A
C1589      C1590   1.415       .  A
C1590      H1597   1.084       .  S
C1591      C1592   1.401       .  A
C1591      H1598   1.084       .  S
C1592      C1593   1.409       .  A
C1592      H1599   1.083       .  S
C1593      C1594   1.410       .  A
C1594      H1600   1.084       .  S
C1601      C1602   1.404       .  A
C1601      C1606   1.408       .  A
C1602      C1603   1.403       .  A
C1602      H1611   1.083       .  S
C1603      C1604   1.405       .  A
C1603      H1612   1.083       .  S
C1604      C1610   1.410       .  A
C1604      C1605   1.414       .  A
C1605      C1607   1.404       .  A
C1605      C1606   1.407       .  A
C1606      H1613   1.084       .  S
C1607      C1608   1.399       .  A
C1607      H1614   1.084       .  S
C1608      C1609   1.403       .  A
C1608      H1615   1.083       .  S
C1609      C1610   1.408       .  A
C1610      H1616   1.084       .  S
C1617      C1618   1.405       .  A
C1617      C1622   1.405   1_554  A
C1618      C1619   1.397       .  A
C1618      H1627   1.083       .  S
C1619      C1620   1.402       .  A
C1619      H1628   1.084       .  S
C1620      C1626   1.400       .  A
C1620      C1621   1.414   1_554  A
C1621      C1623   1.404       .  A
C1621      C1622   1.402       .  A
C1622      H1629   1.084       .  S
C1623      C1624   1.398       .  A
C1623      H1630   1.083       .  S
C1624      C1625   1.401       .  A
C1624      H1631   1.083       .  S
C1625      C1626   1.403   1_556  A
C1626      H1632   1.085       .  S
C1633      C1634   1.406       .  A
C1633      C1638   1.401   1_565  A
C1634      C1635   1.395       .  A
C1634      H1643   1.083       .  S
C1635      C1636   1.400       .  A
C1635      H1644   1.084       .  S
C1636      C1642   1.399       .  A
C1636      C1637   1.416   1_565  A
C1637      C1639   1.400       .  A
C1637      C1638   1.395       .  A
C1638      H1645   1.084       .  S
C1639      C1640   1.391       .  A
C1639      H1646   1.084       .  S
C1640      C1641   1.400       .  A
C1640      H1647   1.084       .  S
C1641      C1642   1.399   1_545  A
C1642      H1648   1.085       .  S
C1649      C1650   1.398       .  A
C1649      C1654   1.400       .  A
C1650      C1651   1.390       .  A
C1650      H1659   1.083       .  S
C1651      C1652   1.403       .  A
C1651      H1660   1.084       .  S
C1652      C1658   1.384       .  A
C1652      C1653   1.412       .  A
C1653      C1655   1.402       .  A
C1653      C1654   1.384       .  A
C1654      H1661   1.085       .  S
C1655      C1656   1.391       .  A
C1655      H1662   1.084       .  S
C1656      C1657   1.399       .  A
C1656      H1663   1.083       .  S
C1657      C1658   1.400       .  A
C1658      H1664   1.086       .  S
C1665      C1666   1.404       .  A
C1665      C1670   1.404       .  A
C1666      C1667   1.402       .  A
C1666      H1675   1.083       .  S
C1667      C1668   1.405       .  A
C1667      H1676   1.084       .  S
C1668      C1674   1.409       .  A
C1668      C1669   1.414       .  A
C1669      C1671   1.401       .  A
C1669      C1670   1.405       .  A
C1670      H1677   1.085       .  S
C1671      C1672   1.397       .  A
C1671      H1678   1.084       .  S
C1672      C1673   1.405       .  A
C1672      H1679   1.083       .  S
C1673      C1674   1.409       .  A
C1674      H1680   1.084       .  S
C1681      C1682   1.405       .  A
C1681      C1686   1.414       .  A
C1682      C1683   1.403       .  A
C1682      H1691   1.083       .  S
C1683      C1684   1.405       .  A
C1683      H1692   1.083       .  S
C1684      C1690   1.414       .  A
C1684      C1685   1.414       .  A
C1685      C1687   1.406       .  A
C1685      C1686   1.416       .  A
C1686      H1693   1.084       .  S
C1687      C1688   1.405       .  A
C1687      H1694   1.083       .  S
C1688      C1689   1.406       .  A
C1688      H1695   1.083       .  S
C1689      C1690   1.411       .  A
C1690      H1696   1.084       .  S
C1697      C1698   1.401       .  A
C1697      C1702   1.400       .  A
C1698      C1699   1.395       .  A
C1698      H1707   1.083       .  S
C1699      C1700   1.403       .  A
C1699      H1708   1.084       .  S
C1700      C1706   1.393       .  A
C1700      C1701   1.413       .  A
C1701      C1703   1.400       .  A
C1701      C1702   1.388       .  A
C1702      H1709   1.085       .  S
C1703      C1704   1.389       .  A
C1703      H1710   1.084       .  S
C1704      C1705   1.399       .  A
C1704      H1711   1.083       .  S
C1705      C1706   1.403       .  A
C1706      H1712   1.085       .  S
C1713      C1714   1.399       .  A
C1713      C1718   1.401       .  A
C1714      C1715   1.394       .  A
C1714      H1723   1.083       .  S
C1715      C1716   1.402       .  A
C1715      H1724   1.084       .  S
C1716      C1722   1.396       .  A
C1716      C1717   1.414       .  A
C1717      C1719   1.402   1_556  A
C1717      C1718   1.398       .  A
C1718      H1725   1.085   1_556  S
C1719      C1720   1.396       .  A
C1719      H1726   1.084       .  S
C1720      C1721   1.404   1_554  A
C1720      H1727   1.083       .  S
C1721      C1722   1.404       .  A
C1722      H1728   1.084       .  S
