geometry optimzed in LAMMPS
_audit_creation_date              2020-11-30 
_audit_creation_method            'lammps2cif' 
_symmetry_space_group_name_H-M    'P1' 
_symmetry_Int_Tables_number       1 
_symmetry_cell_setting            triclinic 
loop_ 
_symmetry_equiv_pos_as_xyz 
  x,y,z 
_cell_length_a                    35.34781749193422 
_cell_length_b                    34.62819499131898 
_cell_length_c                    46.10120204421467 
_cell_angle_alpha                 92.2397967923323 
_cell_angle_beta                  88.49147743681993 
_cell_angle_gamma                 117.98028277106336 
loop_ 
_atom_site_label 
_atom_site_type_symbol 
_atom_site_fract_x 
_atom_site_fract_y 
_atom_site_fract_z 
_atom_site_charge 
O1          O  0.33004945  0.24846877  0.04969518    -0.81330
O2          O  0.31637147  0.13977555  0.14065871    -0.81350
O3          O  0.22771238  0.13220643  0.10318198    -0.81360
O4          O  0.40207992  0.23223491  0.12041060    -0.81300
O5          O  0.25033638  0.08379144  0.11199357    -0.81420
O6          O  0.37127031  0.26579642  0.10217538    -0.81340
O7          O  0.38245161  0.19092532  0.13205408    -0.81330
O8          O  0.26742092  0.21139278  0.07158354    -0.81360
C9          C  0.29065235  0.23942034  0.05293766     1.08360
C10         C  0.35112842  0.17000053  0.14962387     1.08250
C11         C  0.22570784  0.10098805  0.11792040     1.08390
C12         C  0.39536962  0.26556055  0.12159632     1.08260
O13         O  0.41991486  0.25827829  0.05388142    -0.81330
O14         O  0.31010300  0.09269412  0.06057498    -0.81400
O15         O  0.28671318  0.16666705  0.02825554    -0.81340
O16         O  0.38771429  0.13629498  0.10991982    -0.81320
O17         O  0.32718261  0.07480850  0.11599735    -0.81370
O18         O  0.35338860  0.18241317  0.03604787    -0.81340
O19         O  0.43664761  0.21146593  0.07515217    -0.81300
O20         O  0.24801723  0.08896117  0.05402523    -0.81370
Co21       Co  0.36152017  0.22128389  0.07018974     1.51530
Co22       Co  0.31311762  0.11767508  0.10142903     1.51690
Co23       Co  0.25997689  0.15072394  0.06604359     1.51570
Co24       Co  0.37656393  0.18304269  0.08824875     1.51470
O25         O  0.31374959  0.17068866  0.09037196    -1.43260
C26         C  0.44661435  0.24301368  0.05767862     1.08290
C27         C  0.27629082  0.07790442  0.04569667     1.08380
C28         C  0.32379432  0.17699780  0.51897789     1.08320
C29         C  0.36717149  0.09752302  0.12086148     1.08290
O30         O  0.29288313  0.15418015  0.27810967    -0.81330
O31         O  0.40276829  0.16454367  0.37703426    -0.81350
O32         O  0.42481398  0.25179119  0.29814018    -0.81360
O33         O  0.30000581  0.06846942  0.31790131    -0.81300
O34         O  0.42746537  0.19694676  0.31701990    -0.81420
O35         O  0.24679667  0.08229434  0.30928974    -0.81340
O36         O  0.37117200  0.10597955  0.35137224    -0.81330
O37         O  0.36071076  0.16937055  0.28466449    -0.81360
C38         C  0.32899421  0.15948610  0.26853898     1.08360
C39         C  0.39609188  0.12607538  0.37200843     1.08250
C40         C  0.44440881  0.22924316  0.29928477     1.08390
C41         C  0.26911497  0.06321320  0.30214096     1.08260
O42         O  0.24083350  0.13750286  0.35761835    -0.81330
O43         O  0.43306771  0.24568571  0.36716493    -0.81400
O44         O  0.34234168  0.23768977  0.29490987    -0.81340
O45         O  0.32325389  0.12956504  0.39436035    -0.81320
O46         O  0.34567232  0.19801652  0.38164632    -0.81370
O47         O  0.28261364  0.21028361  0.31976548    -0.81340
O48         O  0.25013393  0.08028427  0.36550119    -0.81300
O49         O  0.38449296  0.25969295  0.35084847    -0.81370
Co50       Co  0.26904016  0.14705677  0.31788597     1.51530
Co51       Co  0.38433505  0.19694566  0.35041747     1.51690
Co52       Co  0.37195452  0.21121697  0.31712639     1.51570
Co53       Co  0.31236999  0.09926540  0.35571832     1.51470
O54         O  0.32559269  0.15587264  0.33520156    -1.43260
C55         C  0.23240602  0.10395858  0.37241765     1.08290
C56         C  0.41517133  0.26939857  0.36911030     1.08380
C57         C  0.30571698  0.23475436  0.29952426     1.08320
C58         C  0.33017892  0.16863475  0.39983615     1.08290
O59         O  0.25090421  0.33594988  0.20549188    -0.81330
O60         O  0.13865278  0.31527932  0.11249824    -0.81350
O61         O  0.13841084  0.23085638  0.15010467    -0.81360
O62         O  0.24860390  0.43074174  0.13320856    -0.81300
O63         O  0.08860300  0.25162953  0.14171225    -0.81420
O64         O  0.26793747  0.38425473  0.15037657    -0.81340
O65         O  0.20677172  0.34765954  0.11576657    -0.81330
O66         O  0.21599663  0.27091924  0.18424847    -0.81360
C67         C  0.24326172  0.29610243  0.20298533     1.08360
C68         C  0.17465090  0.33005054  0.10040086     1.08250
C69         C  0.10636306  0.22708514  0.13563644     1.08390
C70         C  0.27522678  0.41542286  0.13246189     1.08260
O71         O  0.26380264  0.42184309  0.20370163    -0.81330
O72         O  0.09407984  0.30979381  0.19446310    -0.81400
O73         O  0.17096436  0.29097457  0.22716094    -0.81340
O74         O  0.15344887  0.38974752  0.13284087    -0.81320
O75         O  0.08485934  0.33683177  0.13787186    -0.81370
O76         O  0.18451685  0.35799894  0.21834685    -0.81340
O77         O  0.20694563  0.42215525  0.18680323    -0.81300
O78         O  0.09465841  0.24753779  0.19896582    -0.81370
Co79       Co  0.22381553  0.36783929  0.18531078     1.51530
Co80       Co  0.12096526  0.31627955  0.15394449     1.51690
Co81       Co  0.15630118  0.26264354  0.18850057     1.51570
Co82       Co  0.20329779  0.37994236  0.15101148     1.51470
O83         O  0.17251740  0.31872300  0.16754097    -1.43260
C84         C  0.24001450  0.44003601  0.20391018     1.08290
C85         C  0.08047941  0.27378882  0.20768109     1.08380
C86         C  0.17425551  0.32751974  0.23548670     1.08320
C87         C  0.11215995  0.37394746  0.12785541     1.08290
O88         O  0.24265474  0.32535664  0.44221321    -0.81330
O89         O  0.13892717  0.33795478  0.36481878    -0.81350
O90         O  0.11900854  0.24355161  0.40625446    -0.81360
O91         O  0.24258585  0.40938117  0.38303416    -0.81300
O92         O  0.08190901  0.27201540  0.38725404    -0.81420
O93         O  0.28985704  0.40201761  0.41061179    -0.81340
O94         O  0.20450130  0.39295796  0.37082125    -0.81330
O95         O  0.17772889  0.27399169  0.45583857    -0.81360
C96         C  0.21875287  0.29242882  0.45750701     1.08360
C97         C  0.17513825  0.36337080  0.35479289     1.08250
C98         C  0.09406356  0.24286404  0.38632054     1.08390
C99         C  0.28076893  0.41209629  0.38621646     1.08260
O100        O  0.24196511  0.41927556  0.44792007    -0.81330
O101        O  0.08124677  0.31317012  0.44487748    -0.81400
O102        O  0.15415026  0.33995128  0.46602795    -0.81340
O103        O  0.14748680  0.40980422  0.38853412    -0.81320
O104        O  0.08031523  0.35431775  0.38815904    -0.81370
O105        O  0.22465661  0.37729950  0.46260059    -0.81340
O106        O  0.22077707  0.45771587  0.42179088    -0.81300
O107        O  0.09014815  0.25802492  0.46207897    -0.81370
Co108      Co  0.23027557  0.36582653  0.41880631     1.51530
Co109      Co  0.11560909  0.33180402  0.40385070     1.51690
Co110      Co  0.13658343  0.29141858  0.43770053     1.51570
Co111      Co  0.19002525  0.39556121  0.41260948     1.51470
O112        O  0.16858308  0.33098112  0.41195465    -1.43260
C113        C  0.23947912  0.45519869  0.44432832     1.08290
C114        C  0.07153575  0.28203501  0.46381348     1.08380
C115        C  0.18991454  0.35928694  0.97811108     1.08320
C116        C  0.10772727  0.39243573  0.37990413     1.08290
O117        O  0.44515788  0.39922749  0.48712305    -0.81330
O118        O  0.00594256  0.97958112  0.05000328    -0.81350
O119        O  0.04555716  0.44868602  0.01775943    -0.81360
O120        O  0.41395487  0.50568689  0.02267129    -0.81300
O121        O  0.09245951  0.50823069  0.03863966    -0.81420
O122        O  0.40518412  0.43932362  0.01965344    -0.81340
O123        O  0.48270983  0.02880763  0.05591176    -0.81330
O124        O  0.50522660  0.42390009  0.46283987    -0.81360
C125        C  0.46847417  0.39265224  0.46823497     1.08360
C126        C  0.98842995  0.99800213  0.06524592     1.08250
C127        C  0.07469357  0.46710716  0.03746195     1.08390
C128        C  0.39677674  0.46726210  0.03257868     1.08260
O129        O  0.41599590  0.99507568  0.46697624    -0.81330
O130        O  0.09073502  0.04893747  0.48681271    -0.81400
O131        O  0.02659237  0.50792235  0.44874635    -0.81340
O132        O  0.03762917  0.09415987  0.01671252    -0.81320
O133        O  0.06398307  0.06499587  0.04463966    -0.81370
O134        O  0.45929355  0.45638828  0.44162635    -0.81340
O135        O  0.47156145  0.05914526  0.97681428    -0.81300
O136        O  0.09035265  0.99124015  0.46588039    -0.81370
Co137      Co  0.43447193  0.44998785  0.48081071     1.51530
Co138      Co  0.04635225  0.01148374  0.01914899     1.51690
Co139      Co  0.03620062  0.48229615  0.48306991     1.51570
Co140      Co  0.47776593  0.04452489  0.01639143     1.51470
O141        O  0.99063804  0.99649716  0.99960716    -1.43260
C142        C  0.43918563  0.03588392  0.46145060     1.08290
C143        C  0.10756477  0.03274686  0.46782708     1.08380
C144        C  0.99477985  0.48574151  0.43254278     1.08320
C145        C  0.05869913  0.09734705  0.03924763     1.08290
O146        O  0.44951965  0.42043317  0.22614459    -0.81330
O147        O  0.04647194  0.05610135  0.30928709    -0.81350
O148        O  0.03125075  0.45842566  0.27402012    -0.81360
O149        O  0.41610163  0.51061426  0.28540455    -0.81300
O150        O  0.09065102  0.51846127  0.28199492    -0.81420
O151        O  0.40109559  0.44654253  0.26365844    -0.81340
O152        O  0.48389109  0.00216346  0.29694335    -0.81330
O153        O  0.51058600  0.41728428  0.21917108    -0.81360
C154        C  0.47005305  0.40045361  0.21521828     1.08360
C155        C  0.01047540  0.02544654  0.31588664     1.08250
C156        C  0.06553847  0.47908615  0.28815549     1.08390
C157        C  0.39256783  0.46847677  0.28369340     1.08260
O158        O  0.43401079  0.99907809  0.21535606    -0.81330
O159        O  0.10815593  0.07534694  0.23400653    -0.81400
O160        O  0.02324030  0.49144894  0.19561073    -0.81340
O161        O  0.00223666  0.09040358  0.28802773    -0.81320
O162        O  0.06544563  0.11639831  0.26632207    -0.81370
O163        O  0.45610905  0.47688293  0.20329781    -0.81340
O164        O  0.46016238  0.06333920  0.23476525    -0.81300
O165        O  0.08931372  0.00490732  0.22388064    -0.81370
Co166      Co  0.46067530  0.47936631  0.24773259     1.51530
Co167      Co  0.07501182  0.06487028  0.27102005     1.51690
Co168      Co  0.02605125  0.47632622  0.23417036     1.51570
Co169      Co  0.47320026  0.03167908  0.26579658     1.51470
O170        O  0.02262212  0.02904435  0.24526053    -1.43260
C171        C  0.43849457  0.03799206  0.21432839     1.08290
C172        C  0.11218578  0.04584376  0.21878620     1.08380
C173        C  0.48811956  0.48451569  0.18596064     1.08320
C174        C  0.04065951  0.12130326  0.28500129     1.08290
C175        C  0.48847312  0.47251915  0.35239047    -0.10340
C176        C  0.00102146  0.01524479  0.34559215     0.05850
C177        C  0.00914896  0.04731288  0.36753789    -0.04110
C178        C  0.00914609  0.03736598  0.39597448    -0.08560
C179        C  0.99815506  0.49492747  0.40266696     0.04970
C180        C  0.48661800  0.46210423  0.38083663    -0.03590
Br181      Br  0.47174018  0.40364090  0.38668484    -0.03280
H182        H  0.48212067  0.44763296  0.33543002     0.08880
H183        H  0.01521325  0.06206800  0.41301212     0.06900
Br184      Br  0.01088279  0.10123788  0.36199446    -0.03710
C185        C  0.99916531  0.96425576  0.10723280    -0.10340
C186        C  0.98102523  0.98849507  0.09558903     0.05850
C187        C  0.46483862  0.01064022  0.11410309    -0.04110
C188        C  0.46781872  0.50853656  0.14350298    -0.08560
C189        C  0.48496794  0.48414011  0.15504234     0.04970
C190        C  0.00269508  0.96317286  0.13680674    -0.03590
Br191      Br  0.03497761  0.93559030  0.15020013    -0.03280
H192        H  0.01328575  0.94842832  0.09344625     0.08880
H193        H  0.46095481  0.52951607  0.15723075     0.06900
Br194      Br  0.44411386  0.04960276  0.10197979    -0.03710
C195        C  0.09888425  0.40353885  0.32708379    -0.10340
C196        C  0.09622191  0.41435894  0.35661804     0.05850
C197        C  0.08560478  0.44795611  0.36298834    -0.04110
C198        C  0.07668795  0.46922852  0.34072843    -0.08560
C199        C  0.07723043  0.45714436  0.31133167     0.04970
C200        C  0.09032359  0.42509509  0.30464240    -0.03590
Br201      Br  0.09916459  0.41183021  0.26498792    -0.03280
H202        H  0.10790203  0.37836655  0.32135252     0.08880
H203        H  0.06929516  0.49537028  0.34648637     0.06900
Br204      Br  0.08240107  0.46455298  0.40211694    -0.03710
C205        C  0.10802455  0.19568643  0.34827154    -0.10340
C206        C  0.08064625  0.21133405  0.36040570     0.05850
C207        C  0.04292160  0.20148784  0.34487625    -0.04110
C208        C  0.03207497  0.17512972  0.31927748    -0.08560
C209        C  0.05829712  0.15780514  0.30776727     0.04970
C210        C  0.09752697  0.16973392  0.32226661    -0.03590
Br211      Br  0.13926288  0.15361612  0.30681635    -0.03280
H212        H  0.13826039  0.20452006  0.35862460     0.08880
H213        H  0.00105469  0.16491808  0.30987719     0.06900
Br214      Br  0.00140213  0.21758459  0.35990589    -0.03710
C215        C  0.29312587  0.41902346  0.33215812    -0.10340
C216        C  0.31028396  0.42201940  0.35990744     0.05850
C217        C  0.35301363  0.42903927  0.36046610    -0.04110
C218        C  0.37877244  0.44208277  0.33500596    -0.08560
C219        C  0.36222426  0.44545952  0.30821244     0.04970
C220        C  0.31777125  0.42756988  0.30654420    -0.03590
Br221      Br  0.28877973  0.40362294  0.27084433    -0.03280
H222        H  0.25971333  0.40722668  0.33010324     0.08880
H223        H  0.41210251  0.45075656  0.33625578     0.06900
Br224      Br  0.37704921  0.41916567  0.39437190    -0.03710
C225        C  0.18535985  0.37998207  0.27589860    -0.10340
C226        C  0.17061665  0.33642554  0.26596953     0.05850
C227        C  0.15764984  0.30283297  0.28575349    -0.04110
C228        C  0.16434552  0.31339582  0.31481755    -0.08560
C229        C  0.18043064  0.35687092  0.32460308     0.04970
C230        C  0.18985516  0.39029294  0.30531207    -0.03590
Br231      Br  0.20837796  0.44952283  0.31864148    -0.03280
H232        H  0.19436418  0.40609273  0.26092007     0.08880
H233        H  0.15440604  0.28729282  0.33009610     0.06900
Br234      Br  0.12722339  0.24228126  0.27477306    -0.03710
C235        C  0.22025586  0.35922038  0.05637044    -0.10340
C236        C  0.17916401  0.33457678  0.06879125     0.05850
C237        C  0.14307638  0.32349955  0.05168252    -0.04110
C238        C  0.14846554  0.33412612  0.02295518    -0.08560
C239        C  0.18896835  0.35795877  0.01009258     0.04970
C240        C  0.22527584  0.37228208  0.02752184    -0.03590
Br241      Br  0.28108482  0.41291397  0.51428299    -0.03280
H242        H  0.24848683  0.37041467  0.06947347     0.08880
H243        H  0.11987051  0.32274584  0.01054701     0.06900
Br244      Br  0.08490726  0.29666474  0.06547275    -0.03710
C245        C  0.05168203  0.40118219  0.06954261    -0.10340
C246        C  0.08347419  0.44248145  0.06070263     0.05850
C247        C  0.12153903  0.46189192  0.07713830    -0.04110
C248        C  0.12915337  0.43955568  0.09898080    -0.08560
C249        C  0.09858984  0.39771851  0.10701819     0.04970
C250        C  0.05841467  0.37929947  0.09270208    -0.03590
Br251      Br  0.01051756  0.32613820  0.10472949    -0.03280
H252        H  0.02065727  0.38684234  0.05933946     0.08880
H253        H  0.15962654  0.45566600  0.11003881     0.06900
Br254      Br  0.16467970  0.01993987  0.07272597    -0.03710
C255        C  0.10050236  0.20758496  0.08197537    -0.10340
C256        C  0.09045943  0.19401425  0.11086084     0.05850
C257        C  0.06930974  0.14876023  0.11551445    -0.04110
C258        C  0.05868429  0.11863692  0.09187039    -0.08560
C259        C  0.06851429  0.13205608  0.06287479     0.04970
C260        C  0.08881807  0.17733596  0.05816850    -0.03590
Br261      Br  0.10342300  0.19942929  0.01992824    -0.03280
H262        H  0.11921343  0.24187147  0.07792019     0.08880
H263        H  0.04323825  0.08416050  0.09635695     0.06900
Br264      Br  0.05562574  0.12642461  0.15391939    -0.03710
C265        C  0.31882461  0.46689881  0.09337693    -0.10340
C266        C  0.30847601  0.42847655  0.10822026     0.05850
C267        C  0.32607805  0.40158627  0.09692264    -0.04110
C268        C  0.35436546  0.41459134  0.07259495    -0.08560
C269        C  0.36637400  0.45448863  0.05869528     0.04970
C270        C  0.34801346  0.48056129  0.07000118    -0.03590
Br271      Br  0.36034345  0.53544315  0.05484251    -0.03280
H272        H  0.30370438  0.48680852  0.09983590     0.08880
H273        H  0.36642377  0.39280527  0.06418036     0.06900
Br274      Br  0.30769833  0.34390810  0.11090772    -0.03710
C275        C  0.41285387  0.03840279  0.41066343    -0.10340
C276        C  0.42832602  0.05859410  0.43799349     0.05850
C277        C  0.43813578  0.10317286  0.44138689    -0.04110
C278        C  0.42899460  0.12473407  0.41959066    -0.08560
C279        C  0.41095970  0.10369786  0.39307033     0.04970
C280        C  0.40533071  0.06093920  0.38830839    -0.03590
Br281      Br  0.39410840  0.03601989  0.35008615    -0.03280
H282        H  0.40913778  0.00617688  0.40610681     0.08880
H283        H  0.43655805  0.15853304  0.42349547     0.06900
Br284      Br  0.46502173  0.13750872  0.47516627    -0.03710
C285        C  0.21399532  0.08834592  0.42589536    -0.10340
C286        C  0.20079267  0.09072642  0.39763158     0.05850
C287        C  0.15742622  0.08014472  0.39424481    -0.04110
C288        C  0.12812922  0.06498098  0.41782274    -0.08560
C289        C  0.14088733  0.06000555  0.44555360     0.04970
C290        C  0.18497135  0.07582350  0.44972787    -0.03590
Br291      Br  0.20671447  0.08833608  0.48812283    -0.03280
H292        H  0.24738490  0.09815308  0.42975047     0.08880
H293        H  0.09467588  0.05478845  0.41397486     0.06900
Br294      Br  0.13589664  0.08154765  0.35706752    -0.03710
C295        C  0.40901944  0.33598083  0.43687903    -0.10340
C296        C  0.45106153  0.35330289  0.44765410     0.05850
C297        C  0.47901610  0.34083195  0.43252783    -0.04110
C298        C  0.46586251  0.31317746  0.40787035    -0.08560
C299        C  0.42554435  0.29940589  0.39540693     0.04970
C300        C  0.39640754  0.31028820  0.41072317    -0.03590
Br301      Br  0.34091404  0.29472120  0.39583126    -0.03280
H302        H  0.38740349  0.34626895  0.44701800     0.08880
H303        H  0.48900359  0.30529493  0.39692706     0.06900
Br304      Br  0.03841540  0.36834904  0.43960255    -0.03710
C305        C  0.21466245  0.98497128  0.23643138    -0.10340
C306        C  0.24798895  0.47625922  0.22620687     0.05850
C307        C  0.28768385  0.49867263  0.24087215    -0.04110
C308        C  0.29326405  0.02690960  0.26449945    -0.08560
C309        C  0.26015466  0.03436389  0.27538039     0.04970
C310        C  0.22047774  0.01307567  0.26105404    -0.03590
Br311      Br  0.17260608  0.01714352  0.27715440    -0.03280
H312        H  0.18336257  0.46780697  0.22658852     0.08880
H313        H  0.32412239  0.04249569  0.27507721     0.06900
Br314      Br  0.33704786  0.49257443  0.23225055    -0.03710
C315        C  0.49007322  0.20738575  0.26432190    -0.10340
C316        C  0.48320587  0.23982441  0.27926108     0.05850
C317        C  0.01179054  0.28357773  0.27245127    -0.04110
C318        C  0.04190208  0.29386649  0.24908682    -0.08560
C319        C  0.04753720  0.26143657  0.23294023     0.04970
C320        C  0.02237988  0.21780620  0.24244779    -0.03590
Br321      Br  0.53118485  0.17063875  0.22716123    -0.03280
H322        H  0.47000948  0.17353420  0.26943135     0.08880
H323        H  0.06122255  0.32749160  0.24349228     0.06900
Br324      Br  0.00923796  0.33000397  0.29503070    -0.03710
C325        C  0.24835659  0.22556427  0.26434950    -0.10340
C326        C  0.28828931  0.25297350  0.27715007     0.05850
C327        C  0.31411748  0.29357733  0.26402725    -0.04110
C328        C  0.29965677  0.30617210  0.23956371    -0.08560
C329        C  0.26004590  0.27845563  0.22633400     0.04970
C330        C  0.23455926  0.23731971  0.23915966    -0.03590
Br331      Br  0.18010267  0.19530368  0.22378725    -0.03280
H332        H  0.22859552  0.19354160  0.27307383     0.08880
H333        H  0.31971347  0.33811420  0.23079586     0.06900
Br334      Br  0.36937507  0.33386888  0.27911353    -0.03710
C335        C  0.29824021  0.18909533  0.47288308    -0.10340
C336        C  0.33099726  0.18654257  0.48831664     0.05850
C337        C  0.36826429  0.19272608  0.47339678    -0.04110
C338        C  0.36803341  0.18991525  0.44373623    -0.08560
C339        C  0.33174270  0.18296167  0.42901957     0.04970
C340        C  0.29901044  0.18834493  0.44289915    -0.03590
Br341      Br  0.25609484  0.19521343  0.42250065    -0.03280
H342        H  0.27121966  0.18996163  0.48388936     0.08880
H343        H  0.39569627  0.19169736  0.43204377     0.06900
Br344      Br  0.42035447  0.20530907  0.99043146    -0.03710
C345        C  0.37567155  0.16095722  0.19540012    -0.10340
C346        C  0.35504886  0.17922847  0.17996644     0.05850
C347        C  0.32754006  0.19283412  0.19374420    -0.04110
C348        C  0.31889393  0.18527895  0.22287139    -0.08560
C349        C  0.33675607  0.16341555  0.23792789     0.04970
C350        C  0.36596691  0.15180850  0.22427359    -0.03590
Br351      Br  0.38941639  0.11913608  0.24265406    -0.03280
H352        H  0.39617059  0.15010741  0.18445329     0.08880
H353        H  0.29773647  0.19595191  0.23360462     0.06900
Br354      Br  0.29929399  0.21904222  0.17316929    -0.03710
C355        C  0.44179993  0.09566175  0.18022318    -0.10340
C356        C  0.42045579  0.05228701  0.18949978     0.05850
C357        C  0.38564712  0.02256452  0.17198118    -0.04110
C358        C  0.36764136  0.03819989  0.15141789    -0.08560
C359        C  0.38858182  0.08186658  0.14242410     0.04970
C360        C  0.42830914  0.10977669  0.15601779    -0.03590
Br361      Br  0.46599775  0.16805942  0.14362930    -0.03280
H362        H  0.47094515  0.11821955  0.19059459     0.08880
H363        H  0.33789692  0.01533872  0.14158854     0.06900
Br364      Br  0.36523668  0.46024895  0.17153361    -0.03710
C365        C  0.21264566  0.08851286  0.17081734    -0.10340
C366        C  0.19561537  0.08561753  0.14316758     0.05850
C367        C  0.15147816  0.07308274  0.14125031    -0.04110
C368        C  0.12468130  0.05750975  0.16573941    -0.08560
C369        C  0.14169746  0.05933304  0.19324564     0.04970
C370        C  0.18655363  0.07866527  0.19575550    -0.03590
Br371      Br  0.21437150  0.09992693  0.23208212    -0.03280
H372        H  0.24691867  0.10199521  0.17332172     0.08880
H373        H  0.09070869  0.04665025  0.16359978     0.06900
Br374      Br  0.12659155  0.08072775  0.10703623    -0.03710
C375        C  0.42595978  0.28985366  0.17216002    -0.10340
C376        C  0.41294560  0.29963065  0.14596747     0.05850
C377        C  0.41751329  0.34208451  0.14376625    -0.04110
C378        C  0.43172524  0.37197561  0.16763991    -0.08560
C379        C  0.44726405  0.36334540  0.19313759     0.04970
C380        C  0.44244096  0.32089648  0.19538343    -0.03710
Br381      Br  0.45116227  0.30154461  0.23111048    -0.03280
H382        H  0.42333774  0.25783883  0.17478644     0.08880
H383        H  0.43247052  0.40311110  0.16552913     0.06900
Br384      Br  0.41245543  0.36370567  0.10725015    -0.03710
C385        C  0.22678490  0.01581662  0.01166802    -0.10340
C386        C  0.26877328  0.04687263  0.01926949     0.05850
C387        C  0.30169919  0.04908754  0.99985370    -0.04110
C388        C  0.29270717  0.51897602  0.47594879    -0.08560
C389        C  0.25040705  0.48842713  0.46893464     0.04970
C390        C  0.21756587  0.48869851  0.48656537    -0.03590
Br391      Br  0.15907556  0.45468928  0.47576538    -0.03280
H392        H  0.20014292  0.01429681  0.02395266     0.08880
H393        H  0.31868683  0.52081419  0.46208073     0.06900
Br394      Br  0.35835821  0.09609765  0.00186283    -0.03710
C395        C  0.50254521  0.29749369  0.02527374    -0.10340
C396        C  0.48546747  0.25711866  0.03877626     0.05850
C397        C  0.50094991  0.22751415  0.02955590    -0.04110
C398        C  0.02696938  0.23608953  0.50460417    -0.08560
C399        C  0.04205844  0.27541967  0.48971410     0.04970
C400        C  0.03367881  0.30813805  0.50318891    -0.03590
Br401      Br  0.07373048  0.36847180  0.50232239    -0.03280
H402        H  0.49344714  0.32180043  0.03314784     0.08880
H403        H  0.03613691  0.21176484  0.49709603     0.06900
Br404      Br  0.48648180  0.17376950  0.04868123    -0.03710
C405        C  0.21314001  0.23994985  0.99597209    -0.10340
C406        C  0.23889900  0.27800517  0.48056665     0.05850
C407        C  0.28169583  0.30389762  0.49028919    -0.04110
C408        C  0.29685288  0.29191447  0.01457251    -0.08560
C409        C  0.27068363  0.25440027  0.03031542     0.04970
C410        C  0.22813469  0.22818404  0.02044373    -0.03590
Br411      Br  0.18925985  0.17382614  0.03769908    -0.03280
H412        H  0.18086045  0.21872762  0.98875308     0.08880
H413        H  0.32983946  0.31207695  0.02102935     0.06900
Br414      Br  0.32206864  0.35651451  0.47203882    -0.03710
O415        O  0.33004939  0.24846873  0.54969517    -0.81330
O416        O  0.31637142  0.13977552  0.64065871    -0.81350
O417        O  0.22771233  0.13220640  0.60318200    -0.81360
O418        O  0.40207989  0.23223484  0.62041058    -0.81300
O419        O  0.25033631  0.08379140  0.61199358    -0.81420
O420        O  0.37127029  0.26579637  0.60217537    -0.81340
O421        O  0.38245157  0.19092525  0.63205406    -0.81330
O422        O  0.26742087  0.21139274  0.57158353    -0.81360
C423        C  0.29065230  0.23942030  0.55293766     1.08360
C424        C  0.35112838  0.17000049  0.64962387     1.08250
C425        C  0.22570778  0.10098802  0.61792041     1.08390
C426        C  0.39536960  0.26556049  0.62159631     1.08260
O427        O  0.41991482  0.25827821  0.55388140    -0.81330
O428        O  0.31010290  0.09269405  0.56057500    -0.81400
O429        O  0.28671308  0.16666697  0.52825554    -0.81340
O430        O  0.38771422  0.13629489  0.60991980    -0.81320
O431        O  0.32718253  0.07480844  0.61599736    -0.81370
O432        O  0.35338852  0.18241312  0.53604784    -0.81340
O433        O  0.43664754  0.21146583  0.57515215    -0.81300
O434        O  0.24801713  0.08896110  0.55402525    -0.81370
Co435      Co  0.36152011  0.22128384  0.57018972     1.51530
Co436      Co  0.31311754  0.11767502  0.60142904     1.51690
Co437      Co  0.25997681  0.15072389  0.56604360     1.51570
Co438      Co  0.37656387  0.18304261  0.58824874     1.51470
O439        O  0.31374953  0.17068861  0.59037195    -1.43260
C440        C  0.44661430  0.24301359  0.55767860     1.08290
C441        C  0.27629072  0.07790434  0.54569670     1.08380
C442        C  0.32379443  0.17699786  0.01897791     1.08320
C443        C  0.36717141  0.09752295  0.62086147     1.08290
O444        O  0.29288320  0.15418023  0.77810967    -0.81330
O445        O  0.40276838  0.16454370  0.87703423    -0.81350
O446        O  0.42481405  0.25179128  0.79814021    -0.81360
O447        O  0.30000589  0.06846948  0.81790125    -0.81300
O448        O  0.42746542  0.19694682  0.81701990    -0.81420
O449        O  0.24679673  0.08229438  0.80928970    -0.81340
O450        O  0.37117211  0.10597963  0.85137217    -0.81330
O451        O  0.36071084  0.16937065  0.78466449    -0.81360
C452        C  0.32899428  0.15948620  0.76853898     1.08360
C453        C  0.39609198  0.12607542  0.87200837     1.08250
C454        C  0.44440887  0.22924324  0.79928479     1.08390
C455        C  0.26911503  0.06321323  0.80214092     1.08260
O456        O  0.24083358  0.13750287  0.85761834    -0.81330
O457        O  0.43306775  0.24568574  0.86716496    -0.81400
O458        O  0.34234174  0.23768986  0.79490990    -0.81340
O459        O  0.32325399  0.12956500  0.89436032    -0.81320
O460        O  0.34567239  0.19801650  0.88164635    -0.81370
O461        O  0.28261371  0.21028365  0.81976551    -0.81340
O462        O  0.25013402  0.08028428  0.86550117    -0.81300
O463        O  0.38449299  0.25969298  0.85084851    -0.81370
Co464      Co  0.26904023  0.14705681  0.81788597     1.51530
Co465      Co  0.38433511  0.19694570  0.85041748     1.51690
Co466      Co  0.37195459  0.21121704  0.81712641     1.51570
Co467      Co  0.31237008  0.09926542  0.85571827     1.51470
O468        O  0.32559276  0.15587269  0.83520155    -1.43260
C469        C  0.23240611  0.10395859  0.87241764     1.08290
C470        C  0.41517137  0.26939860  0.86911034     1.08380
C471        C  0.30571703  0.23475441  0.79952429     1.08320
C472        C  0.33017902  0.16863469  0.89983616     1.08290
O473        O  0.25090418  0.33594979  0.70549188    -0.81330
O474        O  0.13865274  0.31527921  0.61249824    -0.81350
O475        O  0.13841081  0.23085628  0.65010469    -0.81360
O476        O  0.24860387  0.43074164  0.63320857    -0.81300
O477        O  0.08860297  0.25162943  0.64171227    -0.81420
O478        O  0.26793743  0.38425464  0.65037657    -0.81340
O479        O  0.20677168  0.34765945  0.61576657    -0.81330
O480        O  0.21599660  0.27091914  0.68424849    -0.81360
C481        C  0.24326170  0.29610234  0.70298534     1.08360
C482        C  0.17465086  0.33005044  0.60040085     1.08250
C483        C  0.10636302  0.22708503  0.63563645     1.08390
C484        C  0.27522674  0.41542277  0.63246189     1.08260
O485        O  0.26380261  0.42184300  0.70370164    -0.81330
O486        O  0.09407984  0.30979375  0.69446309    -0.81400
O487        O  0.17096433  0.29097448  0.72716095    -0.81340
O488        O  0.15344884  0.38974742  0.63284087    -0.81320
O489        O  0.08485931  0.33683166  0.63787185    -0.81370
O490        O  0.18451682  0.35799885  0.71834685    -0.81340
O491        O  0.20694560  0.42215516  0.68680323    -0.81300
O492        O  0.09465838  0.24753772  0.69896583    -0.81370
Co493      Co  0.22381549  0.36783920  0.68531078     1.51530
Co494      Co  0.12096524  0.31627946  0.65394448     1.51690
Co495      Co  0.15630115  0.26264345  0.68850058     1.51570
Co496      Co  0.20329775  0.37994226  0.65101148     1.51470
O497        O  0.17251738  0.31872290  0.66754097    -1.43260
C498        C  0.24001448  0.44003592  0.70391018     1.08290
C499        C  0.08047941  0.27378877  0.70768109     1.08380
C500        C  0.17425550  0.32751966  0.73548671     1.08320
C501        C  0.11215991  0.37394735  0.62785540     1.08290
O502        O  0.24265479  0.32535667  0.94221321    -0.81330
O503        O  0.13892723  0.33795481  0.86481879    -0.81350
O504        O  0.11900857  0.24355164  0.90625449    -0.81360
O505        O  0.24258593  0.40938119  0.88303416    -0.81300
O506        O  0.08190906  0.27201544  0.88725406    -0.81420
O507        O  0.28985711  0.40201764  0.91061180    -0.81340
O508        O  0.20450137  0.39295799  0.87082125    -0.81330
O509        O  0.17772894  0.27399174  0.95583858    -0.81360
C510        C  0.21875293  0.29242886  0.95750702     1.08360
C511        C  0.17513831  0.36337082  0.85479290     1.08250
C512        C  0.09406359  0.24286406  0.88632057     1.08390
C513        C  0.28076899  0.41209630  0.88621646     1.08260
O514        O  0.24196520  0.41927561  0.94792007    -0.81330
O515        O  0.08124685  0.31317022  0.94487750    -0.81400
O516        O  0.15415035  0.33995135  0.96602796    -0.81340
O517        O  0.14748689  0.40980428  0.88853412    -0.81320
O518        O  0.08031532  0.35431782  0.88815904    -0.81370
O519        O  0.22465669  0.37729956  0.96260060    -0.81340
O520        O  0.22077717  0.45771592  0.92179088    -0.81300
O521        O  0.09014822  0.25802502  0.96207899    -0.81370
Co522      Co  0.23027564  0.36582657  0.91880632     1.51530
Co523      Co  0.11560916  0.33180407  0.90385071     1.51690
Co524      Co  0.13658349  0.29141864  0.93770055     1.51570
Co525      Co  0.19002533  0.39556126  0.91260948     1.51470
O526        O  0.16858314  0.33098117  0.91195466    -1.43260
C527        C  0.23947922  0.45519874  0.94432832     1.08290
C528        C  0.07153582  0.28203513  0.96381351     1.08380
C529        C  0.18991446  0.35928687  0.47811108     1.08320
C530        C  0.10772736  0.39243580  0.87990413     1.08290
O531        O  0.44515795  0.39922758  0.98712307    -0.81330
O532        O  0.00594243  0.97958098  0.55000328    -0.81350
O533        O  0.04555711  0.44868591  0.51775941    -0.81360
O534        O  0.41395481  0.50568679  0.52267129    -0.81300
O535        O  0.09245945  0.50823058  0.53863965    -0.81420
O536        O  0.40518405  0.43932352  0.51965343    -0.81340
O537        O  0.48270968  0.02880748  0.55591175    -0.81330
O538        O  0.50522668  0.42390017  0.96283988    -0.81360
C539        C  0.46847424  0.39265232  0.96823499     1.08360
C540        C  0.98842981  0.99800199  0.56524592     1.08250
C541        C  0.07469352  0.46710704  0.53746194     1.08390
C542        C  0.39677667  0.46726200  0.53257868     1.08260
O543        O  0.41599595  0.99507579  0.96697628    -0.81330
O544        O  0.09073512  0.04893757  0.98681269    -0.81400
O545        O  0.02659245  0.50792242  0.94874634    -0.81340
O546        O  0.03762906  0.09415975  0.51671254    -0.81320
O547        O  0.06398294  0.06499574  0.54463969    -0.81370
O548        O  0.45929362  0.45638835  0.94162636    -0.81340
O549        O  0.47156139  0.05914515  0.47681426    -0.81300
O550        O  0.09035271  0.99124022  0.96588036    -0.81370
Co551      Co  0.43447199  0.44998794  0.98081072     1.51530
Co552      Co  0.04635214  0.01148363  0.51914900     1.51690
Co553      Co  0.03620069  0.48229624  0.98306992     1.51570
Co554      Co  0.47776582  0.04452476  0.51639142     1.51470
O555        O  0.99063795  0.99649704  0.49960715    -1.43260
C556        C  0.43918567  0.03588403  0.96145063     1.08290
C557        C  0.10756486  0.03274693  0.96782706     1.08380
C558        C  0.99477992  0.48574157  0.93254278     1.08320
C559        C  0.05869901  0.09734692  0.53924766     1.08290
O560        O  0.44951965  0.42043312  0.72614458    -0.81330
O561        O  0.04647187  0.05610131  0.80928711    -0.81350
O562        O  0.03125078  0.45842564  0.77402012    -0.81360
O563        O  0.41610165  0.51061424  0.78540454    -0.81300
O564        O  0.09065104  0.51846125  0.78199490    -0.81420
O565        O  0.40109561  0.44654250  0.76365843    -0.81340
O566        O  0.48389105  0.00216342  0.79694335    -0.81330
O567        O  0.51058601  0.41728423  0.71917108    -0.81360
C568        C  0.47005305  0.40045355  0.71521827     1.08360
C569        C  0.01047532  0.02544651  0.81588663     1.08250
C570        C  0.06553851  0.47908614  0.78815547     1.08390
C571        C  0.39256785  0.46847675  0.78369339     1.08260
O572        O  0.43401075  0.99907804  0.71535606    -0.81330
O573        O  0.10815590  0.07534694  0.73400656    -0.81400
O574        O  0.02324030  0.49144887  0.69561071    -0.81340
O575        O  0.00223660  0.09040355  0.78802774    -0.81320
O576        O  0.06544558  0.11639829  0.76632210    -0.81370
O577        O  0.45610905  0.47688287  0.70329780    -0.81340
O578        O  0.46016230  0.06333914  0.73476525    -0.81300
O579        O  0.08931370  0.00490733  0.72388065    -0.81370
Co580      Co  0.46067531  0.47936627  0.74773258     1.51530
Co581      Co  0.07501177  0.06487026  0.77102007     1.51690
Co582      Co  0.02605126  0.47632617  0.73417035     1.51570
Co583      Co  0.47320020  0.03167904  0.76579658     1.51470
O584        O  0.02262208  0.02904434  0.74526053    -1.43260
C585        C  0.43849451  0.03799200  0.71432839     1.08290
C586        C  0.11218576  0.04584377  0.71878623     1.08380
C587        C  0.48811956  0.48451562  0.68596063     1.08320
C588        C  0.04065946  0.12130323  0.78500131     1.08290
C589        C  0.48847319  0.47251916  0.85239047    -0.10340
C590        C  0.00102133  0.01524477  0.84559214     0.05850
C591        C  0.00914870  0.04731287  0.86753785    -0.04110
C592        C  0.00914593  0.03736604  0.89597446    -0.08560
C593        C  0.99815513  0.49492750  0.90266696     0.04970
C594        C  0.48661809  0.46210426  0.88083664    -0.03590
Br595      Br  0.47174031  0.40364094  0.88668486    -0.03280
H596        H  0.48212074  0.44763296  0.83543003     0.08880
H597        H  0.01521299  0.06206806  0.91301208     0.06900
Br598      Br  0.01088210  0.10123768  0.86199436    -0.03710
C599        C  0.99916520  0.96425567  0.60723280    -0.10340
C600        C  0.98102511  0.98849495  0.59558903     0.05850
C601        C  0.46483852  0.01064012  0.61410308    -0.04110
C602        C  0.46781869  0.50853646  0.64350297    -0.08560
C603        C  0.48496792  0.48414003  0.65504233     0.04970
C604        C  0.00269503  0.96317281  0.63680674    -0.03590
Br605      Br  0.03497757  0.93559028  0.65020013    -0.03280
H606        H  0.01328563  0.94842820  0.59344625     0.08880
H607        H  0.46095479  0.52951599  0.65723075     0.06900
Br608      Br  0.44411371  0.04960263  0.60197977    -0.03710
C609        C  0.09888435  0.40353890  0.82708379    -0.10340
C610        C  0.09622201  0.41435900  0.85661804     0.05850
C611        C  0.08560489  0.44795618  0.86298834    -0.04110
C612        C  0.07668803  0.46922856  0.84072842    -0.08560
C613        C  0.07723049  0.45714438  0.81133166     0.04970
C614        C  0.09032367  0.42509512  0.80464239    -0.03590
Br615      Br  0.09916467  0.41183022  0.76498792    -0.03280
H616        H  0.10790213  0.37836660  0.82135253     0.08880
H617        H  0.06929524  0.49537033  0.84648635     0.06900
Br618      Br  0.08240121  0.46455310  0.90211692    -0.03710
C619        C  0.10802448  0.19568632  0.84827162    -0.10340
C620        C  0.08064623  0.21133403  0.86040574     0.05850
C621        C  0.04292163  0.20148789  0.84487626    -0.04110
C622        C  0.03207498  0.17512977  0.81927750    -0.08560
C623        C  0.05829708  0.15780510  0.80776732     0.04970
C624        C  0.09752689  0.16973381  0.82226668    -0.03590
Br625      Br  0.13926279  0.15361599  0.80681642    -0.03280
H626        H  0.13826029  0.20451990  0.85862469     0.08880
H627        H  0.00105473  0.16491819  0.80987718     0.06900
Br628      Br  0.00140224  0.21758480  0.85990583    -0.03710
C629        C  0.29312591  0.41902337  0.83215811    -0.10340
C630        C  0.31028402  0.42201938  0.85990744     0.05850
C631        C  0.35301371  0.42903932  0.86046611    -0.04110
C632        C  0.37877251  0.44208282  0.83500597    -0.08560
C633        C  0.36222431  0.44545951  0.80821244     0.04970
C634        C  0.31777129  0.42756980  0.80654420    -0.03590
Br635      Br  0.28877978  0.40362282  0.77084433    -0.03280
H636        H  0.25971337  0.40722654  0.83010323     0.08880
H637        H  0.41210260  0.45075666  0.83625579     0.06900
Br638      Br  0.37704932  0.41916576  0.89437191    -0.03710
C639        C  0.18535990  0.37998202  0.77589860    -0.10340
C640        C  0.17061668  0.33642548  0.76596954     0.05850
C641        C  0.15764987  0.30283293  0.78575351    -0.04110
C642        C  0.16434555  0.31339580  0.81481757    -0.08560
C643        C  0.18043069  0.35687091  0.82460309     0.04970
C644        C  0.18985523  0.39029292  0.80531206    -0.03590
Br645      Br  0.20837808  0.44952282  0.81864146    -0.03280
H646        H  0.19436423  0.40609268  0.76092006     0.08880
H647        H  0.15440607  0.28729282  0.83009613     0.06900
Br648      Br  0.12722342  0.24228120  0.77477311    -0.03710
C649        C  0.22025580  0.35922034  0.55637043    -0.10340
C650        C  0.17916396  0.33457667  0.56879124     0.05850
C651        C  0.14307632  0.32349936  0.55168251    -0.04110
C652        C  0.14846547  0.33412590  0.52295517    -0.08560
C653        C  0.18896826  0.35795864  0.51009257     0.04970
C654        C  0.22527576  0.37228202  0.52752184    -0.03590
Br655      Br  0.28108493  0.41291393  0.01428299    -0.03280
H656        H  0.24848677  0.37041468  0.56947347     0.08880
H657        H  0.11987043  0.32274555  0.51054699     0.06900
Br658      Br  0.08490720  0.29666450  0.56547274    -0.03710
C659        C  0.05168199  0.40118207  0.56954259    -0.10340
C660        C  0.08347415  0.44248133  0.56070261     0.05850
C661        C  0.12153899  0.46189179  0.57713827    -0.04110
C662        C  0.12915333  0.43955556  0.59898077    -0.08560
C663        C  0.09858980  0.39771839  0.60701817     0.04970
C664        C  0.05841463  0.37929935  0.59270206    -0.03590
Br665      Br  0.01051753  0.32613808  0.60472947    -0.03280
H666        H  0.02065722  0.38684223  0.55933945     0.08880
H667        H  0.15962651  0.45566588  0.61003878     0.06900
Br668      Br  0.16467960  0.01993979  0.57272599    -0.03710
C669        C  0.10050233  0.20758484  0.58197539    -0.10340
C670        C  0.09045939  0.19401413  0.61086086     0.05850
C671        C  0.06930965  0.14876012  0.61551447    -0.04110
C672        C  0.05868418  0.11863681  0.59187042    -0.08560
C673        C  0.06851418  0.13205595  0.56287481     0.04970
C674        C  0.08881800  0.17733583  0.55816852    -0.03590
Br675      Br  0.10342289  0.19942916  0.51992825    -0.03280
H676        H  0.11921345  0.24187135  0.57792021     0.08880
H677        H  0.04323811  0.08416038  0.59635697     0.06900
Br678      Br  0.05562563  0.12642451  0.65391941    -0.03710
C679        C  0.31882457  0.46689871  0.59337694    -0.10340
C680        C  0.30847597  0.42847645  0.60822027     0.05850
C681        C  0.32607798  0.40158616  0.59692262    -0.04110
C682        C  0.35436538  0.41459122  0.57259494    -0.08560
C683        C  0.36637394  0.45448853  0.55869527     0.04970
C684        C  0.34801342  0.48056120  0.57000119    -0.03590
Br685      Br  0.36034343  0.53544308  0.55484253    -0.03280
H686        H  0.30370436  0.48680844  0.59983592     0.08880
H687        H  0.36642368  0.39280514  0.56418033     0.06900
Br688      Br  0.30769823  0.34390797  0.61090768    -0.03710
C689        C  0.41285354  0.03840269  0.91066354    -0.10340
C690        C  0.42832607  0.05859418  0.93799350     0.05850
C691        C  0.43813612  0.10317304  0.94138678    -0.04110
C692        C  0.42899497  0.12473422  0.91959050    -0.08560
C693        C  0.41095977  0.10369787  0.89307028     0.04970
C694        C  0.40533039  0.06093904  0.88830847    -0.03590
Br695      Br  0.39410743  0.03601932  0.85008635    -0.03280
H696        H  0.40913710  0.00617661  0.90610704     0.08880
H697        H  0.43655867  0.15853328  0.92349521     0.06900
Br698      Br  0.46502229  0.13750904  0.97516606    -0.03710
C699        C  0.21399542  0.08834598  0.92589535    -0.10340
C700        C  0.20079276  0.09072642  0.89763157     0.05850
C701        C  0.15742631  0.08014470  0.89424477    -0.04110
C702        C  0.12812931  0.06498099  0.91782270    -0.08560
C703        C  0.14088741  0.06000561  0.94555358     0.04970
C704        C  0.18497144  0.07582359  0.94972786    -0.03590
Br705      Br  0.20671455  0.08833623  0.98812282    -0.03280
H706        H  0.24738500  0.09815316  0.92975047     0.08880
H707        H  0.09467596  0.05478845  0.91397482     0.06900
Br708      Br  0.13589674  0.08154754  0.85706747    -0.03710
C709        C  0.40901951  0.33598091  0.93687906    -0.10340
C710        C  0.45106161  0.35330296  0.94765413     0.05850
C711        C  0.47901617  0.34083201  0.93252786    -0.04110
C712        C  0.46586256  0.31317748  0.90787039    -0.08560
C713        C  0.42554440  0.29940592  0.89540697     0.04970
C714        C  0.39640761  0.31028826  0.91072321    -0.03590
Br715      Br  0.34091412  0.29472130  0.89583128    -0.03280
H716        H  0.38740358  0.34626904  0.94701802     0.08880
H717        H  0.48900363  0.30529495  0.89692710     0.06900
Br718      Br  0.03841549  0.36834916  0.93960252    -0.03710
C719        C  0.21466241  0.98497124  0.73643137    -0.10340
C720        C  0.24798894  0.47625915  0.72620687     0.05850
C721        C  0.28768385  0.49867255  0.74087214    -0.04110
C722        C  0.29326402  0.02690953  0.76449943    -0.08560
C723        C  0.26015467  0.03436387  0.77538036     0.04970
C724        C  0.22047773  0.01307566  0.76105402    -0.03590
Br725      Br  0.17260609  0.01714354  0.77715439    -0.03280
H726        H  0.18336258  0.46780694  0.72658850     0.08880
H727        H  0.32412237  0.04249561  0.77507718     0.06900
Br728      Br  0.33704784  0.49257433  0.73225055    -0.03710
C729        C  0.49007321  0.20738577  0.76432190    -0.10340
C730        C  0.48320590  0.23982445  0.77926109     0.05850
C731        C  0.01179060  0.28357777  0.77245127    -0.04110
C732        C  0.04190213  0.29386650  0.74908683    -0.08560
C733        C  0.04753721  0.26143655  0.73294024     0.04970
C734        C  0.02237986  0.21780619  0.74244779    -0.03590
Br735      Br  0.53118477  0.17063870  0.72716123    -0.03280
H736        H  0.47000943  0.17353422  0.76943135     0.08880
H737        H  0.06122263  0.32749161  0.74349229     0.06900
Br738      Br  0.00923805  0.33000403  0.79503070    -0.03710
C739        C  0.24835662  0.22556427  0.76434955    -0.10340
C740        C  0.28828935  0.25297352  0.77715010     0.05850
C741        C  0.31411750  0.29357734  0.76402725    -0.04110
C742        C  0.29965678  0.30617207  0.73956370    -0.08560
C743        C  0.26004589  0.27845558  0.72633401     0.04970
C744        C  0.23455926  0.23731967  0.73915970    -0.03590
Br745      Br  0.18010267  0.19530362  0.72378731    -0.03280
H746        H  0.22859555  0.19354161  0.77307390     0.08880
H747        H  0.31971346  0.33811415  0.73079584     0.06900
Br748      Br  0.36937510  0.33386891  0.77911351    -0.03710
C749        C  0.29824041  0.18909545  0.97288308    -0.10340
C750        C  0.33099739  0.18654260  0.98831666     0.05850
C751        C  0.36826437  0.19272594  0.97339681    -0.04110
C752        C  0.36803346  0.18991498  0.94373626    -0.08560
C753        C  0.33174280  0.18296154  0.92901960     0.04970
C754        C  0.29901062  0.18834497  0.94289915    -0.03590
Br755      Br  0.25609505  0.19521351  0.92250064    -0.03280
H756        H  0.27121989  0.18996185  0.98388936     0.08880
H757        H  0.39569625  0.19169692  0.93204381     0.06900
Br758      Br  0.42035441  0.20530925  0.49043142    -0.03710
C759        C  0.37567150  0.16095713  0.69540010    -0.10340
C760        C  0.35504886  0.17922844  0.67996643     0.05850
C761        C  0.32754016  0.19283421  0.69374419    -0.04110
C762        C  0.31889405  0.18527908  0.72287139    -0.08560
C763        C  0.33675614  0.16341564  0.73792789     0.04970
C764        C  0.36596690  0.15180847  0.72427358    -0.03590
Br765      Br  0.38941632  0.11913602  0.74265407    -0.03280
H766        H  0.39617046  0.15010723  0.68445328     0.08880
H767        H  0.29773665  0.19595213  0.73360464     0.06900
Br768      Br  0.29929419  0.21904243  0.67316929    -0.03710
C769        C  0.44179985  0.09566168  0.68022317    -0.10340
C770        C  0.42045572  0.05228694  0.68949977     0.05850
C771        C  0.38564706  0.02256444  0.67198117    -0.04110
C772        C  0.36764129  0.03819981  0.65141787    -0.08560
C773        C  0.38858175  0.08186650  0.64242409     0.04970
C774        C  0.42830907  0.10977662  0.65601778    -0.03590
Br775      Br  0.46599766  0.16805936  0.64362930    -0.03280
H776        H  0.47094507  0.11821949  0.69059459     0.08880
H777        H  0.33789686  0.01533863  0.64158851     0.06900
Br778      Br  0.36523667  0.46024890  0.67153360    -0.03710
C779        C  0.21264563  0.08851287  0.67081735    -0.10340
C780        C  0.19561532  0.08561752  0.64316759     0.05850
C781        C  0.15147811  0.07308271  0.64125033    -0.04110
C782        C  0.12468126  0.05750974  0.66573943    -0.08560
C783        C  0.14169743  0.05933305  0.69324566     0.04970
C784        C  0.18655361  0.07866529  0.69575551    -0.03590
Br785      Br  0.21437150  0.09992697  0.73208213    -0.03280
H786        H  0.24691863  0.10199523  0.67332173     0.08880
H787        H  0.09070865  0.04665022  0.66359981     0.06900
Br788      Br  0.12659148  0.08072768  0.60703625    -0.03710
C789        C  0.42595981  0.28985361  0.67216000    -0.10340
C790        C  0.41294560  0.29963059  0.64596745     0.05850
C791        C  0.41751326  0.34208444  0.64376625    -0.04110
C792        C  0.43172521  0.37197555  0.66763991    -0.08560
C793        C  0.44726405  0.36334534  0.69313758     0.04970
C794        C  0.44244100  0.32089643  0.69538340    -0.03710
Br795      Br  0.45116237  0.30154457  0.73111045    -0.03280
H796        H  0.42333780  0.25783879  0.67478641     0.08880
H797        H  0.43247047  0.40311102  0.66552914     0.06900
Br798      Br  0.41245535  0.36370560  0.60725017    -0.03710
C799        C  0.22678482  0.01581650  0.51166806    -0.10340
C800        C  0.26877318  0.04687255  0.51926952     0.05850
C801        C  0.30169910  0.04908754  0.49985372    -0.04110
C802        C  0.29270724  0.51897612  0.97594878    -0.08560
C803        C  0.25040714  0.48842718  0.96893465     0.04970
C804        C  0.21756595  0.48869848  0.98656541    -0.03590
Br805      Br  0.15907564  0.45468922  0.97576542    -0.03280
H806        H  0.20014283  0.01429664  0.52395270     0.08880
H807        H  0.31868691  0.52081435  0.96208071     0.06900
Br808      Br  0.35835806  0.09609773  0.50186285    -0.03710
C809        C  0.50254521  0.29749360  0.52527374    -0.10340
C810        C  0.48546742  0.25711856  0.53877625     0.05850
C811        C  0.50094981  0.22751402  0.52955587    -0.04110
C812        C  0.02696951  0.23608970  0.00460422    -0.08560
C813        C  0.04205853  0.27541980  0.98971414     0.04970
C814        C  0.03367884  0.30813816  0.00318892    -0.03590
Br815      Br  0.07373044  0.36847192  0.00232240    -0.03280
H816        H  0.49344717  0.32180036  0.53314785     0.08880
H817        H  0.03613710  0.21176504  0.99709611     0.06900
Br818      Br  0.48648176  0.17376941  0.54868123    -0.03710
C819        C  0.21313995  0.23994982  0.49597209    -0.10340
C820        C  0.23889905  0.27800520  0.98056665     0.05850
C821        C  0.28169589  0.30389765  0.99028918    -0.04110
C822        C  0.29685282  0.29191443  0.51457251    -0.08560
C823        C  0.27068358  0.25440023  0.53031542     0.04970
C824        C  0.22813463  0.22818400  0.52044373    -0.03590
Br825      Br  0.18925980  0.17382609  0.53769907    -0.03280
H826        H  0.18086039  0.21872759  0.48875308     0.08880
H827        H  0.32983939  0.31207692  0.52102936     0.06900
Br828      Br  0.32206871  0.35651452  0.97203880    -0.03710
O829        O  0.33004943  0.74846877  0.04969518    -0.81330
O830        O  0.31637146  0.63977557  0.14065872    -0.81350
O831        O  0.22771237  0.63220644  0.10318200    -0.81360
O832        O  0.40207992  0.73223490  0.12041059    -0.81300
O833        O  0.25033636  0.58379145  0.11199359    -0.81420
O834        O  0.37127032  0.76579642  0.10217538    -0.81340
O835        O  0.38245161  0.69092531  0.13205408    -0.81330
O836        O  0.26742090  0.71139278  0.07158354    -0.81360
C837        C  0.29065234  0.73942034  0.05293766     1.08360
C838        C  0.35112841  0.67000054  0.14962387     1.08250
C839        C  0.22570782  0.60098806  0.11792041     1.08390
C840        C  0.39536963  0.76556054  0.12159631     1.08260
O841        O  0.41991486  0.75827826  0.05388141    -0.81330
O842        O  0.31010297  0.59269411  0.06057500    -0.81400
O843        O  0.28671314  0.66666703  0.02825555    -0.81340
O844        O  0.38771426  0.63629496  0.10991982    -0.81320
O845        O  0.32718258  0.57480850  0.11599737    -0.81370
O846        O  0.35338857  0.68241316  0.03604785    -0.81340
O847        O  0.43664759  0.71146589  0.07515216    -0.81300
O848        O  0.24801720  0.58896115  0.05402525    -0.81370
Co849      Co  0.36152016  0.72128389  0.07018973     1.51530
Co850      Co  0.31311759  0.61767508  0.10142905     1.51690
Co851      Co  0.25997686  0.65072394  0.06604360     1.51570
Co852      Co  0.37656391  0.68304267  0.08824875     1.51470
O853        O  0.31374958  0.67068866  0.09037196    -1.43260
C854        C  0.44661434  0.74301365  0.05767861     1.08290
C855        C  0.27629079  0.57790440  0.04569670     1.08380
C856        C  0.32379436  0.67699781  0.51897790     1.08320
C857        C  0.36717146  0.59752301  0.12086149     1.08290
O858        O  0.29288316  0.65418017  0.27810968    -0.81330
O859        O  0.40276836  0.66454368  0.37703424    -0.81350
O860        O  0.42481401  0.75179120  0.29814017    -0.81360
O861        O  0.30000583  0.56846944  0.31790130    -0.81300
O862        O  0.42746540  0.69694676  0.31701988    -0.81420
O863        O  0.24679669  0.58229436  0.30928974    -0.81340
O864        O  0.37117205  0.60597958  0.35137220    -0.81330
O865        O  0.36071078  0.66937056  0.28466449    -0.81360
C866        C  0.32899423  0.65948612  0.26853898     1.08360
C867        C  0.39609193  0.62607538  0.37200840     1.08250
C868        C  0.44440884  0.72924317  0.29928476     1.08390
C869        C  0.26911498  0.56321322  0.30214096     1.08260
O870        O  0.24083355  0.63750289  0.35761836    -0.81330
O871        O  0.43306776  0.74568572  0.36716492    -0.81400
O872        O  0.34234171  0.73768980  0.29490987    -0.81340
O873        O  0.32325396  0.62956503  0.39436034    -0.81320
O874        O  0.34567239  0.69801652  0.38164634    -0.81370
O875        O  0.28261369  0.71028364  0.31976549    -0.81340
O876        O  0.25013398  0.58028429  0.36550120    -0.81300
O877        O  0.38449300  0.75969295  0.35084847    -0.81370
Co878      Co  0.26904020  0.64705679  0.31788598     1.51530
Co879      Co  0.38433510  0.69694567  0.35041747     1.51690
Co880      Co  0.37195456  0.71121698  0.31712639     1.51570
Co881      Co  0.31237004  0.59926541  0.35571831     1.51470
O882        O  0.32559273  0.65587266  0.33520156    -1.43260
C883        C  0.23240607  0.60395860  0.37241766     1.08290
C884        C  0.41517137  0.76939858  0.36911030     1.08380
C885        C  0.30571702  0.73475438  0.29952427     1.08320
C886        C  0.33017901  0.66863473  0.39983616     1.08290
O887        O  0.25090425  0.83594989  0.20549188    -0.81330
O888        O  0.13865281  0.81527933  0.11249824    -0.81350
O889        O  0.13841089  0.73085640  0.15010467    -0.81360
O890        O  0.24860394  0.93074175  0.13320857    -0.81300
O891        O  0.08860305  0.75162954  0.14171225    -0.81420
O892        O  0.26793750  0.88425474  0.15037657    -0.81340
O893        O  0.20677175  0.84765956  0.11576656    -0.81330
O894        O  0.21599667  0.77091925  0.18424847    -0.81360
C895        C  0.24326176  0.79610244  0.20298533     1.08360
C896        C  0.17465093  0.83005056  0.10040085     1.08250
C897        C  0.10636310  0.72708515  0.13563643     1.08390
C898        C  0.27522681  0.91542287  0.13246189     1.08260
O899        O  0.26380267  0.92184309  0.20370164    -0.81330
O900        O  0.09407988  0.80979382  0.19446309    -0.81400
O901        O  0.17096439  0.79097456  0.22716094    -0.81340
O902        O  0.15344890  0.88974753  0.13284087    -0.81320
O903        O  0.08485937  0.83683177  0.13787186    -0.81370
O904        O  0.18451689  0.85799894  0.21834685    -0.81340
O905        O  0.20694566  0.92215526  0.18680323    -0.81300
O906        O  0.09465844  0.74753780  0.19896581    -0.81370
Co907      Co  0.22381556  0.86783930  0.18531078     1.51530
Co908      Co  0.12096530  0.81627956  0.15394448     1.51690
Co909      Co  0.15630122  0.76264355  0.18850057     1.51570
Co910      Co  0.20329782  0.87994237  0.15101148     1.51470
O911        O  0.17251744  0.81872300  0.16754097    -1.43260
C912        C  0.24001453  0.94003601  0.20391018     1.08290
C913        C  0.08047945  0.77378883  0.20768108     1.08380
C914        C  0.17425555  0.82751973  0.23548670     1.08320
C915        C  0.11215998  0.87394747  0.12785540     1.08290
O916        O  0.24265475  0.82535665  0.44221321    -0.81330
O917        O  0.13892719  0.83795480  0.36481879    -0.81350
O918        O  0.11900854  0.74355163  0.40625448    -0.81360
O919        O  0.24258588  0.90938119  0.38303416    -0.81300
O920        O  0.08190902  0.77201543  0.38725405    -0.81420
O921        O  0.28985706  0.90201763  0.41061179    -0.81340
O922        O  0.20450132  0.89295798  0.37082125    -0.81330
O923        O  0.17772889  0.77399172  0.45583858    -0.81360
C924        C  0.21875287  0.79242883  0.45750701     1.08360
C925        C  0.17513826  0.86337081  0.35479289     1.08250
C926        C  0.09406356  0.74286405  0.38632056     1.08390
C927        C  0.28076895  0.91209631  0.38621645     1.08260
O928        O  0.24196515  0.91927558  0.44792007    -0.81330
O929        O  0.08124680  0.81317019  0.44487749    -0.81400
O930        O  0.15415030  0.83995133  0.46602796    -0.81340
O931        O  0.14748684  0.90980427  0.38853412    -0.81320
O932        O  0.08031527  0.85431779  0.38815903    -0.81370
O933        O  0.22465664  0.87729952  0.46260059    -0.81340
O934        O  0.22077712  0.95771590  0.42179087    -0.81300
O935        O  0.09014817  0.75802499  0.46207898    -0.81370
Co936      Co  0.23027559  0.86582655  0.41880631     1.51530
Co937      Co  0.11560911  0.83180405  0.40385071     1.51690
Co938      Co  0.13658344  0.79141862  0.43770054     1.51570
Co939      Co  0.19002528  0.89556124  0.41260948     1.51470
O940        O  0.16858310  0.83098115  0.41195465    -1.43260
C941        C  0.23947916  0.95519871  0.44432832     1.08290
C942        C  0.07153577  0.78203509  0.46381350     1.08380
C943        C  0.18991451  0.85928693  0.97811107     1.08320
C944        C  0.10772731  0.89243578  0.37990412     1.08290
O945        O  0.44515789  0.89922748  0.48712304    -0.81330
O946        O  0.00594253  0.47958111  0.05000329    -0.81350
O947        O  0.04555718  0.94868601  0.01775941    -0.81360
O948        O  0.41395490  0.00568692  0.02267130    -0.81300
O949        O  0.09245953  0.00823068  0.03863964    -0.81420
O950        O  0.40518414  0.93932364  0.01965344    -0.81340
O951        O  0.48270979  0.52880761  0.05591176    -0.81330
O952        O  0.50522663  0.92390009  0.46283988    -0.81360
C953        C  0.46847420  0.89265223  0.46823497     1.08360
C954        C  0.98842992  0.49800212  0.06524593     1.08250
C955        C  0.07469359  0.96710715  0.03746193     1.08390
C956        C  0.39677677  0.96726212  0.03257869     1.08260
O957        O  0.41599588  0.49507569  0.46697627    -0.81330
O958        O  0.09073504  0.54893747  0.48681271    -0.81400
O959        O  0.02659238  0.00792233  0.44874635    -0.81340
O960        O  0.03762915  0.59415986  0.01671252    -0.81320
O961        O  0.06398304  0.56499586  0.04463967    -0.81370
O962        O  0.45929357  0.95638825  0.44162634    -0.81340
O963        O  0.47156143  0.55914524  0.97681427    -0.81300
O964        O  0.09035264  0.49124015  0.46588036    -0.81370
Co965      Co  0.43447193  0.94998784  0.48081070     1.51530
Co966      Co  0.04635222  0.51148373  0.01914900     1.51690
Co967      Co  0.03620062  0.98229615  0.48306991     1.51570
Co968      Co  0.47776590  0.54452487  0.01639143     1.51470
O969        O  0.99063803  0.49649715  0.99960716    -1.43260
C970        C  0.43918561  0.53588393  0.46145063     1.08290
C971        C  0.10756478  0.53274685  0.46782707     1.08380
C972        C  0.99477987  0.98574148  0.43254277     1.08320
C973        C  0.05869911  0.59734704  0.03924764     1.08290
O974        O  0.44951966  0.92043316  0.22614458    -0.81330
O975        O  0.04647190  0.55610133  0.30928712    -0.81350
O976        O  0.03125077  0.95842567  0.27402011    -0.81360
O977        O  0.41610168  0.01061430  0.28540454    -0.81300
O978        O  0.09065105  0.01846128  0.28199490    -0.81420
O979        O  0.40109561  0.94654256  0.26365844    -0.81340
O980        O  0.48389105  0.50216344  0.29694336    -0.81330
O981        O  0.51058601  0.91728427  0.21917107    -0.81360
C982        C  0.47005306  0.90045360  0.21521827     1.08360
C983        C  0.01047535  0.52544653  0.31588665     1.08250
C984        C  0.06553851  0.97908616  0.28815547     1.08390
C985        C  0.39256787  0.96847682  0.28369340     1.08260
O986        O  0.43401077  0.49907809  0.21535607    -0.81330
O987        O  0.10815592  0.57534695  0.23400656    -0.81400
O988        O  0.02324031  0.99144892  0.19561071    -0.81340
O989        O  0.00223663  0.59040357  0.28802775    -0.81320
O990        O  0.06544560  0.61639831  0.26632210    -0.81370
O991        O  0.45610906  0.97688292  0.20329780    -0.81340
O992        O  0.46016233  0.56333918  0.23476527    -0.81300
O993        O  0.08931371  0.50490733  0.22388066    -0.81370
Co994      Co  0.46067532  0.97936631  0.24773259     1.51530
Co995      Co  0.07501179  0.56487027  0.27102008     1.51690
Co996      Co  0.02605127  0.97632621  0.23417035     1.51570
Co997      Co  0.47320021  0.53167907  0.26579659     1.51470
O998        O  0.02262209  0.52904435  0.24526054    -1.43260
C999        C  0.43849453  0.53799205  0.21432841     1.08290
C1000       C  0.11218577  0.54584378  0.21878623     1.08380
C1001       C  0.48811958  0.98451567  0.18596063     1.08320
C1002       C  0.04065948  0.62130325  0.28500131     1.08290
C1003       C  0.48847316  0.97251915  0.35239046    -0.10340
C1004       C  0.00102137  0.51524478  0.34559215     0.05850
C1005       C  0.00914881  0.54731287  0.36753788    -0.04110
C1006       C  0.00914597  0.53736599  0.39597448    -0.08560
C1007       C  0.99815510  0.99492743  0.40266695     0.04970
C1008       C  0.48661802  0.96210421  0.38083662    -0.03590
Br1009     Br  0.47174015  0.90364086  0.38668481    -0.03280
H1010       H  0.48212067  0.94763296  0.33543000     0.08880
H1011       H  0.01521308  0.56206801  0.41301211     0.06900
Br1012     Br  0.01088245  0.60123779  0.36199442    -0.03710
C1013       C  0.99916528  0.46425577  0.10723281    -0.10340
C1014       C  0.98102520  0.48849507  0.09558904     0.05850
C1015       C  0.46483859  0.51064022  0.11410310    -0.04110
C1016       C  0.46781873  0.00853654  0.14350297    -0.08560
C1017       C  0.48496795  0.98414009  0.15504233     0.04970
C1018       C  0.00269507  0.46317288  0.13680675    -0.03590
Br1019     Br  0.03497760  0.43559032  0.15020014    -0.03280
H1020       H  0.01328572  0.44842832  0.09344626     0.08880
H1021       H  0.46095482  0.02951604  0.15723074     0.06900
Br1022     Br  0.44411380  0.54960275  0.10197979    -0.03710
C1023       C  0.09888430  0.90353888  0.32708379    -0.10340
C1024       C  0.09622196  0.91435899  0.35661803     0.05850
C1025       C  0.08560484  0.94795617  0.36298833    -0.04110
C1026       C  0.07668801  0.96922857  0.34072841    -0.08560
C1027       C  0.07723047  0.95714439  0.31133166     0.04970
C1028       C  0.09032363  0.92509511  0.30464239    -0.03590
Br1029     Br  0.09916462  0.91183021  0.26498791    -0.03280
H1030       H  0.10790208  0.87836659  0.32135252     0.08880
H1031       H  0.06929523  0.99537034  0.34648635     0.06900
Br1032     Br  0.08240113  0.96455306  0.40211692    -0.03710
C1033       C  0.10802452  0.69568639  0.34827159    -0.10340
C1034       C  0.08064623  0.71133404  0.36040572     0.05850
C1035       C  0.04292161  0.70148787  0.34487626    -0.04110
C1036       C  0.03207497  0.67512975  0.31927750    -0.08560
C1037       C  0.05829710  0.65780513  0.30776730     0.04970
C1038       C  0.09752693  0.66973388  0.32226665    -0.03590
Br1039     Br  0.13926284  0.65361606  0.30681640    -0.03280
H1040       H  0.13826034  0.70452000  0.35862465     0.08880
H1041       H  0.00105471  0.66491813  0.30987719     0.06900
Br1042     Br  0.00140217  0.71758469  0.35990587    -0.03710
C1043       C  0.29312589  0.91902340  0.33215811    -0.10340
C1044       C  0.31028400  0.92201944  0.35990744     0.05850
C1045       C  0.35301369  0.92903942  0.36046612    -0.04110
C1046       C  0.37877251  0.94208293  0.33500599    -0.08560
C1047       C  0.36222431  0.94545960  0.30821245     0.04970
C1048       C  0.31777129  0.92756986  0.30654420    -0.03590
Br1049     Br  0.28877980  0.90362289  0.27084432    -0.03280
H1050       H  0.25971334  0.90722652  0.33010322     0.08880
H1051       H  0.41210259  0.95075681  0.33625582     0.06900
Br1052     Br  0.37704928  0.91916586  0.39437193    -0.03710
C1053       C  0.18535991  0.87998207  0.27589860    -0.10340
C1054       C  0.17061669  0.83642554  0.26596953     0.05850
C1055       C  0.15764984  0.80283296  0.28575349    -0.04110
C1056       C  0.16434551  0.81339581  0.31481755    -0.08560
C1057       C  0.18043065  0.85687092  0.32460308     0.04970
C1058       C  0.18985521  0.89029294  0.30531206    -0.03590
Br1059     Br  0.20837805  0.94952284  0.31864148    -0.03280
H1060       H  0.19436426  0.90609274  0.26092007     0.08880
H1061       H  0.15440600  0.78729282  0.33009610     0.06900
Br1062     Br  0.12722340  0.74228125  0.27477306    -0.03710
C1063       C  0.22025587  0.85922049  0.05637043    -0.10340
C1064       C  0.17916403  0.83457681  0.06879124     0.05850
C1065       C  0.14307638  0.82349949  0.05168251    -0.04110
C1066       C  0.14846552  0.83412602  0.02295517    -0.08560
C1067       C  0.18896832  0.85795875  0.01009257     0.04970
C1068       C  0.22527581  0.87228217  0.02752184    -0.03590
Br1069     Br  0.28108489  0.91291374  0.51428297    -0.03280
H1070       H  0.24848684  0.87041485  0.06947347     0.08880
H1071       H  0.11987049  0.82274565  0.01054699     0.06900
Br1072     Br  0.08490726  0.79666460  0.06547274    -0.03710
C1073       C  0.05168206  0.90118218  0.06954259    -0.10340
C1074       C  0.08347421  0.94248144  0.06070261     0.05850
C1075       C  0.12153905  0.96189191  0.07713827    -0.04110
C1076       C  0.12915339  0.93955568  0.09898078    -0.08560
C1077       C  0.09858987  0.89771850  0.10701817     0.04970
C1078       C  0.05841470  0.87929946  0.09270206    -0.03590
Br1079     Br  0.01051760  0.82613818  0.10472946    -0.03280
H1080       H  0.02065730  0.88684232  0.05933943     0.08880
H1081       H  0.15962657  0.95566600  0.11003879     0.06900
Br1082     Br  0.16467967  0.51993989  0.07272599    -0.03710
C1083       C  0.10050244  0.70758496  0.08197537    -0.10340
C1084       C  0.09045947  0.69401426  0.11086083     0.05850
C1085       C  0.06930972  0.64876025  0.11551445    -0.04110
C1086       C  0.05868426  0.61863693  0.09187039    -0.08560
C1087       C  0.06851428  0.63205608  0.06287479     0.04970
C1088       C  0.08881812  0.67733596  0.05816849    -0.03590
Br1089     Br  0.10342304  0.69942929  0.01992824    -0.03280
H1090       H  0.11921356  0.74187147  0.07792019     0.08880
H1091       H  0.04323818  0.58416051  0.09635695     0.06900
Br1092     Br  0.05562568  0.62642463  0.15391939    -0.03710
C1093       C  0.31882464  0.96689882  0.09337694    -0.10340
C1094       C  0.30847604  0.92847656  0.10822027     0.05850
C1095       C  0.32607807  0.90158628  0.09692264    -0.04110
C1096       C  0.35436548  0.91459135  0.07259495    -0.08560
C1097       C  0.36637403  0.95448865  0.05869528     0.04970
C1098       C  0.34801350  0.98056131  0.07000119    -0.03590
Br1099     Br  0.36034351  0.03544319  0.05484254    -0.03280
H1100       H  0.30370441  0.98680854  0.09983591     0.08880
H1101       H  0.36642379  0.89280528  0.06418035     0.06900
Br1102     Br  0.30769836  0.84390811  0.11090772    -0.03710
C1103       C  0.41285361  0.53840268  0.41066351    -0.10340
C1104       C  0.42832601  0.55859410  0.43799350     0.05850
C1105       C  0.43813598  0.60317294  0.44138682    -0.04110
C1106       C  0.42899482  0.62473413  0.41959057    -0.08560
C1107       C  0.41095972  0.60369783  0.39307031     0.04970
C1108       C  0.40533048  0.56093907  0.38830845    -0.03590
Br1109     Br  0.39410777  0.53601950  0.35008628    -0.03280
H1110       H  0.40913729  0.50617666  0.40610696     0.08880
H1111       H  0.43655844  0.65853316  0.42349531     0.06900
Br1112     Br  0.46502210  0.63750889  0.47516613    -0.03710
C1113       C  0.21399536  0.58834600  0.42589538    -0.10340
C1114       C  0.20079271  0.59072643  0.39763159     0.05850
C1115       C  0.15742625  0.58014467  0.39424478    -0.04110
C1116       C  0.12812923  0.56498091  0.41782270    -0.08560
C1117       C  0.14088733  0.56000555  0.44555358     0.04970
C1118       C  0.18497136  0.57582357  0.44972787    -0.03590
Br1119     Br  0.20671446  0.58833623  0.48812284    -0.03280
H1120       H  0.24738494  0.59815320  0.42975051     0.08880
H1121       H  0.09467589  0.55478835  0.41397481     0.06900
Br1122     Br  0.13589669  0.58154753  0.35706748    -0.03710
C1123       C  0.40901948  0.83598082  0.43687903    -0.10340
C1124       C  0.45106158  0.85330289  0.44765410     0.05850
C1125       C  0.47901616  0.84083197  0.43252782    -0.04110
C1126       C  0.46586256  0.81317747  0.40787034    -0.08560
C1127       C  0.42554440  0.79940589  0.39540693     0.04970
C1128       C  0.39640759  0.81028820  0.41072317    -0.03590
Br1129     Br  0.34091411  0.79472125  0.39583124    -0.03280
H1130       H  0.38740354  0.84626894  0.44701799     0.08880
H1131       H  0.48900364  0.80529495  0.39692705     0.06900
Br1132     Br  0.03841546  0.86834912  0.43960250    -0.03710
C1133       C  0.21466242  0.48497128  0.23643138    -0.10340
C1134       C  0.24798898  0.97625922  0.22620687     0.05850
C1135       C  0.28768388  0.99867264  0.24087215    -0.04110
C1136       C  0.29326403  0.52690960  0.26449945    -0.08560
C1137       C  0.26015465  0.53436389  0.27538039     0.04970
C1138       C  0.22047773  0.51307568  0.26105405    -0.03590
Br1139     Br  0.17260607  0.51714352  0.27715442    -0.03280
H1140       H  0.18336260  0.96780697  0.22658851     0.08880
H1141       H  0.32412238  0.54249569  0.27507720     0.06900
Br1142     Br  0.33704789  0.99257444  0.23225056    -0.03710
C1143       C  0.49007324  0.70738575  0.26432188    -0.10340
C1144       C  0.48320589  0.73982441  0.27926106     0.05850
C1145       C  0.01179058  0.78357773  0.27245126    -0.04110
C1146       C  0.04190212  0.79386649  0.24908681    -0.08560
C1147       C  0.04753723  0.76143657  0.23294023     0.04970
C1148       C  0.02237991  0.71780620  0.24244777    -0.03590
Br1149     Br  0.53118487  0.67063874  0.22716122    -0.03280
H1150       H  0.47000949  0.67353420  0.26943133     0.08880
H1151       H  0.06122260  0.82749161  0.24349228     0.06900
Br1152     Br  0.00923801  0.83000397  0.29503070    -0.03710
C1153       C  0.24835663  0.72556430  0.26434952    -0.10340
C1154       C  0.28828935  0.75297353  0.27715009     0.05850
C1155       C  0.31411752  0.79357736  0.26402725    -0.04110
C1156       C  0.29965681  0.80617212  0.23956371    -0.08560
C1157       C  0.26004593  0.77845565  0.22633400     0.04970
C1158       C  0.23455929  0.73731973  0.23915968    -0.03590
Br1159     Br  0.18010270  0.69530371  0.22378727    -0.03280
H1160       H  0.22859555  0.69354163  0.27307385     0.08880
H1161       H  0.31971351  0.83811421  0.23079586     0.06900
Br1162     Br  0.36937511  0.83386890  0.27911353    -0.03710
C1163       C  0.29824034  0.68909542  0.47288308    -0.10340
C1164       C  0.33099734  0.68654257  0.48831666     0.05850
C1165       C  0.36826433  0.69272596  0.47339681    -0.04110
C1166       C  0.36803345  0.68991508  0.44373626    -0.08560
C1167       C  0.33174279  0.68296162  0.42901959     0.04970
C1168       C  0.29901058  0.68834499  0.44289915    -0.03590
Br1169     Br  0.25609501  0.69521352  0.42250064    -0.03280
H1170       H  0.27121982  0.68996178  0.48388936     0.08880
H1171       H  0.39569627  0.69169707  0.43204381     0.06900
Br1172     Br  0.42035446  0.70530921  0.99043143    -0.03710
C1173       C  0.37567155  0.66095723  0.19540011    -0.10340
C1174       C  0.35504887  0.67922849  0.17996645     0.05850
C1175       C  0.32754009  0.69283416  0.19374420    -0.04110
C1176       C  0.31889395  0.68527898  0.22287139    -0.08560
C1177       C  0.33675609  0.66341557  0.23792789     0.04970
C1178       C  0.36596692  0.65180851  0.22427358    -0.03590
Br1179     Br  0.38941638  0.61913608  0.24265405    -0.03280
H1180       H  0.39617058  0.65010741  0.18445329     0.08880
H1181       H  0.29773650  0.69595196  0.23360463     0.06900
Br1182     Br  0.29929404  0.71904230  0.17316930    -0.03710
C1183       C  0.44179989  0.59566173  0.18022320    -0.10340
C1184       C  0.42045575  0.55228700  0.18949979     0.05850
C1185       C  0.38564710  0.52256450  0.17198118    -0.04110
C1186       C  0.36764133  0.53819987  0.15141789    -0.08560
C1187       C  0.38858179  0.58186656  0.14242411     0.04970
C1188       C  0.42830911  0.60977668  0.15601780    -0.03590
Br1189     Br  0.46599771  0.66805941  0.14362932    -0.03280
H1190       H  0.47094510  0.61821954  0.19059462     0.08880
H1191       H  0.33789690  0.51533870  0.14158854     0.06900
Br1192     Br  0.36523670  0.96024896  0.17153362    -0.03710
C1193       C  0.21264565  0.58851288  0.17081736    -0.10340
C1194       C  0.19561535  0.58561755  0.14316760     0.05850
C1195       C  0.15147814  0.57308276  0.14125034    -0.04110
C1196       C  0.12468129  0.55750978  0.16573943    -0.08560
C1197       C  0.14169745  0.55933306  0.19324566     0.04970
C1198       C  0.18655362  0.57866529  0.19575552    -0.03590
Br1199     Br  0.21437149  0.59992694  0.23208214    -0.03280
H1200       H  0.24691865  0.60199523  0.17332174     0.08880
H1201       H  0.09070868  0.54665027  0.16359981     0.06900
Br1202     Br  0.12659153  0.58072777  0.10703626    -0.03710
C1203       C  0.42595980  0.78985366  0.17216001    -0.10340
C1204       C  0.41294563  0.79963065  0.14596746     0.05850
C1205       C  0.41751331  0.84208450  0.14376624    -0.04110
C1206       C  0.43172525  0.87197561  0.16763990    -0.08560
C1207       C  0.44726406  0.86334539  0.19313758     0.04970
C1208       C  0.44244098  0.82089647  0.19538342    -0.03710
Br1209     Br  0.45116231  0.80154461  0.23111047    -0.03280
H1210       H  0.42333778  0.75783883  0.17478643     0.08880
H1211       H  0.43247052  0.90311108  0.16552912     0.06900
Br1212     Br  0.41245546  0.86370567  0.10725014    -0.03710
C1213       C  0.22678489  0.51581655  0.01166806    -0.10340
C1214       C  0.26877326  0.54687260  0.01926952     0.05850
C1215       C  0.30169918  0.54908757  0.99985372    -0.04110
C1216       C  0.29270718  0.01897609  0.47594878    -0.08560
C1217       C  0.25040708  0.98842714  0.46893465     0.04970
C1218       C  0.21756588  0.98869843  0.48656541    -0.03590
Br1219     Br  0.15907558  0.95468917  0.47576542    -0.03280
H1220       H  0.20014290  0.51429670  0.02395271     0.08880
H1221       H  0.31868685  0.02081433  0.46208070     0.06900
Br1222     Br  0.35835815  0.59609773  0.00186285    -0.03710
C1223       C  0.50254524  0.79749366  0.02527374    -0.10340
C1224       C  0.48546746  0.75711862  0.03877625     0.05850
C1225       C  0.50094987  0.72751409  0.02955588    -0.04110
C1226       C  0.02696944  0.73608964  0.50460420    -0.08560
C1227       C  0.04205847  0.77541975  0.48971412     0.04970
C1228       C  0.03367878  0.80813811  0.50318891    -0.03590
Br1229     Br  0.07373037  0.86847187  0.50232239    -0.03280
H1230       H  0.49344719  0.82180041  0.03314784     0.08880
H1231       H  0.03613700  0.71176496  0.49709607     0.06900
Br1232     Br  0.48648180  0.67376947  0.04868123    -0.03710
C1233       C  0.21314001  0.73994983  0.99597206    -0.10340
C1234       C  0.23889900  0.77800516  0.48056665     0.05850
C1235       C  0.28169585  0.80389758  0.49028915    -0.04110
C1236       C  0.29685285  0.79191450  0.01457254    -0.08560
C1237       C  0.27068362  0.75440027  0.03031542     0.04970
C1238       C  0.22813469  0.72818401  0.02044371    -0.03590
Br1239     Br  0.18925988  0.67382607  0.03769902    -0.03280
H1240       H  0.18086047  0.71872758  0.98875304     0.08880
H1241       H  0.32983941  0.81207700  0.02102940     0.06900
Br1242     Br  0.32206869  0.85651441  0.47203873    -0.03710
O1243       O  0.33004940  0.74846872  0.54969517    -0.81330
O1244       O  0.31637144  0.63977550  0.64065871    -0.81350
O1245       O  0.22771234  0.63220639  0.60318198    -0.81360
O1246       O  0.40207988  0.73223486  0.62041059    -0.81300
O1247       O  0.25033634  0.58379140  0.61199357    -0.81420
O1248       O  0.37127027  0.76579637  0.60217538    -0.81340
O1249       O  0.38245158  0.69092527  0.63205407    -0.81330
O1250       O  0.26742087  0.71139274  0.57158353    -0.81360
C1251       C  0.29065231  0.73942030  0.55293765     1.08360
C1252       C  0.35112839  0.67000049  0.64962387     1.08250
C1253       C  0.22570779  0.60098801  0.61792040     1.08390
C1254       C  0.39536958  0.76556050  0.62159631     1.08260
O1255       O  0.41991481  0.75827824  0.55388141    -0.81330
O1256       O  0.31010294  0.59269407  0.56057498    -0.81400
O1257       O  0.28671312  0.66666699  0.52825554    -0.81340
O1258       O  0.38771425  0.63629493  0.60991981    -0.81320
O1259       O  0.32718257  0.57480845  0.61599734    -0.81370
O1260       O  0.35338854  0.68241312  0.53604786    -0.81340
O1261       O  0.43664755  0.71146588  0.57515215    -0.81300
O1262       O  0.24801716  0.58896112  0.55402524    -0.81370
Co1263     Co  0.36152012  0.72128384  0.57018973     1.51530
Co1264     Co  0.31311757  0.61767503  0.60142903     1.51690
Co1265     Co  0.25997684  0.65072390  0.56604359     1.51570
Co1266     Co  0.37656388  0.68304264  0.58824875     1.51470
O1267       O  0.31374954  0.67068861  0.59037195    -1.43260
C1268       C  0.44661430  0.74301363  0.55767861     1.08290
C1269       C  0.27629075  0.57790437  0.54569668     1.08380
C1270       C  0.32379438  0.67699784  0.01897790     1.08320
C1271       C  0.36717144  0.59752297  0.62086147     1.08290
O1272       O  0.29288317  0.65418020  0.77810967    -0.81330
O1273       O  0.40276833  0.66454370  0.87703425    -0.81350
O1274       O  0.42481401  0.75179126  0.79814021    -0.81360
O1275       O  0.30000587  0.56846946  0.81790127    -0.81300
O1276       O  0.42746539  0.69694681  0.81701991    -0.81420
O1277       O  0.24679671  0.58229436  0.80928970    -0.81340
O1278       O  0.37117206  0.60597961  0.85137219    -0.81330
O1279       O  0.36071081  0.66937063  0.78466449    -0.81360
C1280       C  0.32899426  0.65948617  0.76853898     1.08360
C1281       C  0.39609193  0.62607542  0.87200839     1.08250
C1282       C  0.44440883  0.72924323  0.79928479     1.08390
C1283       C  0.26911501  0.56321322  0.80214093     1.08260
O1284       O  0.24083353  0.63750285  0.85761833    -0.81330
O1285       O  0.43306771  0.74568574  0.86716497    -0.81400
O1286       O  0.34234170  0.73768983  0.79490989    -0.81340
O1287       O  0.32325393  0.62956501  0.89436033    -0.81320
O1288       O  0.34567233  0.69801650  0.88164634    -0.81370
O1289       O  0.28261365  0.71028362  0.81976549    -0.81340
O1290       O  0.25013398  0.58028427  0.86550116    -0.81300
O1291       O  0.38449295  0.75969297  0.85084851    -0.81370
Co1292     Co  0.26904019  0.64705679  0.81788596     1.51530
Co1293     Co  0.38433506  0.69694569  0.85041749     1.51690
Co1294     Co  0.37195455  0.71121702  0.81712641     1.51570
Co1295     Co  0.31237004  0.59926542  0.85571829     1.51470
O1296       O  0.32559272  0.65587267  0.83520155    -1.43260
C1297       C  0.23240606  0.60395857  0.87241763     1.08290
C1298       C  0.41517132  0.76939860  0.86911034     1.08380
C1299       C  0.30571699  0.73475438  0.79952427     1.08320
C1300       C  0.33017895  0.66863471  0.89983616     1.08290
O1301       O  0.25090415  0.83594978  0.70549186    -0.81330
O1302       O  0.13865271  0.81527920  0.61249823    -0.81350
O1303       O  0.13841076  0.73085627  0.65010468    -0.81360
O1304       O  0.24860384  0.93074164  0.63320855    -0.81300
O1305       O  0.08860293  0.75162943  0.64171226    -0.81420
O1306       O  0.26793741  0.88425463  0.65037655    -0.81340
O1307       O  0.20677165  0.84765944  0.61576656    -0.81330
O1308       O  0.21599656  0.77091913  0.68424847    -0.81360
C1309       C  0.24326166  0.79610233  0.70298532     1.08360
C1310       C  0.17465083  0.83005042  0.60040085     1.08250
C1311       C  0.10636297  0.72708503  0.63563645     1.08390
C1312       C  0.27522672  0.91542276  0.63246187     1.08260
O1313       O  0.26380259  0.92184299  0.70370162    -0.81330
O1314       O  0.09407980  0.80979375  0.69446309    -0.81400
O1315       O  0.17096430  0.79097448  0.72716094    -0.81340
O1316       O  0.15344881  0.88974742  0.63284086    -0.81320
O1317       O  0.08485928  0.83683166  0.63787185    -0.81370
O1318       O  0.18451680  0.85799885  0.71834684    -0.81340
O1319       O  0.20694558  0.92215517  0.68680322    -0.81300
O1320       O  0.09465835  0.74753772  0.69896582    -0.81370
Co1321     Co  0.22381547  0.86783920  0.68531077     1.51530
Co1322     Co  0.12096520  0.81627946  0.65394448     1.51690
Co1323     Co  0.15630111  0.76264345  0.68850057     1.51570
Co1324     Co  0.20329773  0.87994226  0.65101147     1.51470
O1325       O  0.17251734  0.81872290  0.66754096    -1.43260
C1326       C  0.24001446  0.94003592  0.70391017     1.08290
C1327       C  0.08047937  0.77378877  0.70768109     1.08380
C1328       C  0.17425547  0.82751966  0.73548670     1.08320
C1329       C  0.11215989  0.87394736  0.62785540     1.08290
O1330       O  0.24265478  0.82535668  0.94221321    -0.81330
O1331       O  0.13892721  0.83795480  0.86481878    -0.81350
O1332       O  0.11900857  0.74355162  0.90625446    -0.81360
O1333       O  0.24258590  0.90938118  0.88303416    -0.81300
O1334       O  0.08190904  0.77201542  0.88725404    -0.81420
O1335       O  0.28985709  0.90201763  0.91061179    -0.81340
O1336       O  0.20450135  0.89295798  0.87082125    -0.81330
O1337       O  0.17772893  0.77399173  0.95583857    -0.81360
C1338       C  0.21875292  0.79242886  0.95750702     1.08360
C1339       C  0.17513829  0.86337081  0.85479289     1.08250
C1340       C  0.09406359  0.74286404  0.88632055     1.08390
C1341       C  0.28076897  0.91209629  0.88621645     1.08260
O1342       O  0.24196517  0.91927560  0.94792006    -0.81330
O1343       O  0.08124681  0.81317016  0.94487748    -0.81400
O1344       O  0.15415031  0.83995131  0.96602795    -0.81340
O1345       O  0.14748685  0.90980425  0.88853411    -0.81320
O1346       O  0.08031528  0.85431778  0.88815903    -0.81370
O1347       O  0.22465665  0.87729955  0.96260059    -0.81340
O1348       O  0.22077712  0.95771590  0.92179087    -0.81300
O1349       O  0.09014820  0.75802497  0.96207897    -0.81370
Co1350     Co  0.23027562  0.86582656  0.91880631     1.51530
Co1351     Co  0.11560913  0.83180404  0.90385070     1.51690
Co1352     Co  0.13658347  0.79141861  0.93770053     1.51570
Co1353     Co  0.19002530  0.89556124  0.91260947     1.51470
O1354       O  0.16858312  0.83098115  0.91195464    -1.43260
C1355       C  0.23947918  0.95519873  0.94432831     1.08290
C1356       C  0.07153579  0.78203507  0.96381349     1.08380
C1357       C  0.18991449  0.85928690  0.47811108     1.08320
C1358       C  0.10772732  0.89243576  0.87990412     1.08290
O1359       O  0.44515796  0.89922760  0.98712306    -0.81330
O1360       O  0.00594247  0.47958099  0.55000329    -0.81350
O1361       O  0.04555710  0.94868592  0.51775943    -0.81360
O1362       O  0.41395479  0.00568678  0.52267126    -0.81300
O1363       O  0.09245942  0.00823059  0.53863967    -0.81420
O1364       O  0.40518404  0.93932351  0.51965341    -0.81340
O1365       O  0.48270972  0.52880748  0.55591176    -0.81330
O1366       O  0.50522667  0.92390018  0.96283987    -0.81360
C1367       C  0.46847424  0.89265233  0.96823497     1.08360
C1368       C  0.98842986  0.49800199  0.56524592     1.08250
C1369       C  0.07469350  0.96710706  0.53746195     1.08390
C1370       C  0.39677666  0.96726199  0.53257865     1.08260
O1371       O  0.41599594  0.49507577  0.96697627    -0.81330
O1372       O  0.09073510  0.54893756  0.98681271    -0.81400
O1373       O  0.02659245  0.00792245  0.94874634    -0.81340
O1374       O  0.03762909  0.59415975  0.51671253    -0.81320
O1375       O  0.06398298  0.56499574  0.54463968    -0.81370
O1376       O  0.45929363  0.95638838  0.94162636    -0.81340
O1377       O  0.47156138  0.55914515  0.47681428    -0.81300
O1378       O  0.09035271  0.49124022  0.96588039    -0.81370
Co1379     Co  0.43447201  0.94998796  0.98081072     1.51530
Co1380     Co  0.04635216  0.51148363  0.51914899     1.51690
Co1381     Co  0.03620070  0.98229625  0.98306990     1.51570
Co1382     Co  0.47776584  0.54452477  0.51639143     1.51470
O1383       O  0.99063796  0.49649705  0.49960716    -1.43260
C1384       C  0.43918565  0.53588400  0.96145062     1.08290
C1385       C  0.10756484  0.53274693  0.96782708     1.08380
C1386       C  0.99477992  0.98574161  0.93254277     1.08320
C1387       C  0.05869904  0.59734692  0.53924765     1.08290
O1388       O  0.44951964  0.92043314  0.72614458    -0.81330
O1389       O  0.04647191  0.55610131  0.80928710    -0.81350
O1390       O  0.03125075  0.95842565  0.77402012    -0.81360
O1391       O  0.41610162  0.01061422  0.78540454    -0.81300
O1392       O  0.09065101  0.01846127  0.78199492    -0.81420
O1393       O  0.40109559  0.94654250  0.76365842    -0.81340
O1394       O  0.48389107  0.50216342  0.79694335    -0.81330
O1395       O  0.51058600  0.91728426  0.71917107    -0.81360
C1396       C  0.47005304  0.90045358  0.71521827     1.08360
C1397       C  0.01047537  0.52544650  0.81588663     1.08250
C1398       C  0.06553848  0.97908615  0.78815548     1.08390
C1399       C  0.39256783  0.96847673  0.78369339     1.08260
O1400       O  0.43401077  0.49907804  0.71535606    -0.81330
O1401       O  0.10815592  0.57534691  0.73400654    -0.81400
O1402       O  0.02324030  0.99144892  0.69561071    -0.81340
O1403       O  0.00223664  0.59040354  0.78802773    -0.81320
O1404       O  0.06544561  0.61639828  0.76632208    -0.81370
O1405       O  0.45610904  0.97688289  0.70329780    -0.81340
O1406       O  0.46016234  0.56333914  0.73476525    -0.81300
O1407       O  0.08931371  0.50490729  0.72388064    -0.81370
Co1408     Co  0.46067530  0.97936628  0.74773258     1.51530
Co1409     Co  0.07501180  0.56487024  0.77102005     1.51690
Co1410     Co  0.02605125  0.97632620  0.73417035     1.51570
Co1411     Co  0.47320023  0.53167903  0.76579658     1.51470
O1412       O  0.02262210  0.52904431  0.74526052    -1.43260
C1413       C  0.43849454  0.53799200  0.71432839     1.08290
C1414       C  0.11218577  0.54584373  0.71878621     1.08380
C1415       C  0.48811955  0.98451566  0.68596063     1.08320
C1416       C  0.04065949  0.62130322  0.78500129     1.08290
C1417       C  0.48847317  0.97251918  0.85239048    -0.10340
C1418       C  0.00102141  0.51524477  0.84559214     0.05850
C1419       C  0.00914883  0.54731287  0.86753786    -0.04110
C1420       C  0.00914602  0.53736602  0.89597447    -0.08560
C1421       C  0.99815512  0.99492755  0.90266695     0.04970
C1422       C  0.48661808  0.96210429  0.88083664    -0.03590
Br1423     Br  0.47174033  0.90364097  0.88668486    -0.03280
H1424       H  0.48212074  0.94763298  0.83543004     0.08880
H1425       H  0.01521312  0.56206805  0.91301209     0.06900
Br1426     Br  0.01088242  0.60123776  0.86199439    -0.03710
C1427       C  0.99916523  0.46425565  0.60723280    -0.10340
C1428       C  0.98102515  0.48849494  0.59558903     0.05850
C1429       C  0.46483855  0.51064011  0.61410309    -0.04110
C1430       C  0.46781868  0.00853649  0.64350296    -0.08560
C1431       C  0.48496792  0.98414006  0.65504233     0.04970
C1432       C  0.00269504  0.46317277  0.63680674    -0.03590
Br1433     Br  0.03497757  0.43559023  0.65020013    -0.03280
H1434       H  0.01328566  0.44842819  0.59344625     0.08880
H1435       H  0.46095478  0.02951603  0.65723074     0.06900
Br1436     Br  0.44411377  0.54960264  0.60197979    -0.03710
C1437       C  0.09888429  0.90353886  0.82708378    -0.10340
C1438       C  0.09622196  0.91435897  0.85661803     0.05850
C1439       C  0.08560485  0.94795615  0.86298833    -0.04110
C1440       C  0.07668799  0.96922855  0.84072842    -0.08560
C1441       C  0.07723045  0.95714437  0.81133166     0.04970
C1442       C  0.09032362  0.92509510  0.80464238    -0.03590
Br1443     Br  0.09916462  0.91183022  0.76498791    -0.03280
H1444       H  0.10790207  0.87836657  0.82135251     0.08880
H1445       H  0.06929521  0.99537031  0.84648636     0.06900
Br1446     Br  0.08240121  0.96455307  0.90211692    -0.03710
C1447       C  0.10802452  0.69568635  0.84827158    -0.10340
C1448       C  0.08064625  0.71133403  0.86040571     0.05850
C1449       C  0.04292162  0.70148786  0.84487625    -0.04110
C1450       C  0.03207498  0.67512973  0.81927748    -0.08560
C1451       C  0.05829711  0.65780510  0.80776729     0.04970
C1452       C  0.09752693  0.66973384  0.82226664    -0.03590
Br1453     Br  0.13926284  0.65361603  0.80681638    -0.03280
H1454       H  0.13826034  0.70451996  0.85862464     0.08880
H1455       H  0.00105472  0.66491812  0.80987717     0.06900
Br1456     Br  0.00140220  0.71758470  0.85990585    -0.03710
C1457       C  0.29312589  0.91902342  0.83215811    -0.10340
C1458       C  0.31028400  0.92201937  0.85990744     0.05850
C1459       C  0.35301366  0.92903923  0.86046609    -0.04110
C1460       C  0.37877247  0.94208272  0.83500595    -0.08560
C1461       C  0.36222428  0.94545947  0.80821243     0.04970
C1462       C  0.31777127  0.92756982  0.80654420    -0.03590
Br1463     Br  0.28877973  0.90362285  0.77084433    -0.03280
H1464       H  0.25971336  0.90722665  0.83010324     0.08880
H1465       H  0.41210254  0.95075652  0.83625577     0.06900
Br1466     Br  0.37704927  0.91916566  0.89437189    -0.03710
C1467       C  0.18535986  0.87998202  0.77589859    -0.10340
C1468       C  0.17061665  0.83642549  0.76596953     0.05850
C1469       C  0.15764986  0.80283293  0.78575350    -0.04110
C1470       C  0.16434556  0.81339580  0.81481756    -0.08560
C1471       C  0.18043068  0.85687091  0.82460308     0.04970
C1472       C  0.18985519  0.89029292  0.80531205    -0.03590
Br1473     Br  0.20837800  0.94952281  0.81864145    -0.03280
H1474       H  0.19436417  0.90609267  0.76092005     0.08880
H1475       H  0.15440609  0.78729282  0.83009611     0.06900
Br1476     Br  0.12722342  0.74228121  0.77477309    -0.03710
C1477       C  0.22025580  0.85922023  0.55637042    -0.10340
C1478       C  0.17916394  0.83457665  0.56879124     0.05850
C1479       C  0.14307631  0.82349947  0.55168250    -0.04110
C1480       C  0.14846549  0.83412606  0.52295518    -0.08560
C1481       C  0.18896829  0.85795869  0.51009258     0.04970
C1482       C  0.22527578  0.87228194  0.52752183    -0.03590
Br1483     Br  0.28108487  0.91291413  0.01428298    -0.03280
H1484       H  0.24848676  0.87041447  0.56947345     0.08880
H1485       H  0.11987046  0.82274582  0.51054700     0.06900
Br1486     Br  0.08490720  0.79666469  0.56547274    -0.03710
C1487       C  0.05168196  0.90118209  0.56954261    -0.10340
C1488       C  0.08347412  0.94248135  0.56070263     0.05850
C1489       C  0.12153896  0.96189181  0.57713829    -0.04110
C1490       C  0.12915331  0.93955557  0.59898079    -0.08560
C1491       C  0.09858978  0.89771841  0.60701818     0.04970
C1492       C  0.05841460  0.87929938  0.59270208    -0.03590
Br1493     Br  0.01051749  0.82613811  0.60472950    -0.03280
H1494       H  0.02065719  0.88684225  0.55933947     0.08880
H1495       H  0.15962648  0.95566589  0.61003879     0.06900
Br1496     Br  0.16467965  0.51993975  0.57272597    -0.03710
C1497       C  0.10050223  0.70758483  0.58197539    -0.10340
C1498       C  0.09045934  0.69401413  0.61086085     0.05850
C1499       C  0.06930968  0.64876011  0.61551447    -0.04110
C1500       C  0.05868423  0.61863680  0.59187042    -0.08560
C1501       C  0.06851419  0.63205595  0.56287481     0.04970
C1502       C  0.08881794  0.67733583  0.55816851    -0.03590
Br1503     Br  0.10342283  0.69942916  0.51992825    -0.03280
H1504       H  0.11921327  0.74187135  0.57792020     0.08880
H1505       H  0.04323820  0.58416038  0.59635697     0.06900
Br1506     Br  0.05562572  0.62642450  0.65391941    -0.03710
C1507       C  0.31882454  0.96689871  0.59337691    -0.10340
C1508       C  0.30847594  0.92847645  0.60822024     0.05850
C1509       C  0.32607797  0.90158616  0.59692261    -0.04110
C1510       C  0.35436538  0.91459122  0.57259492    -0.08560
C1511       C  0.36637393  0.95448852  0.55869525     0.04970
C1512       C  0.34801339  0.98056118  0.57000115    -0.03590
Br1513     Br  0.36034335  0.03544303  0.55484247    -0.03280
H1514       H  0.30370432  0.98680843  0.59983589     0.08880
H1515       H  0.36642368  0.89280515  0.56418032     0.06900
Br1516     Br  0.30769821  0.84390797  0.61090767    -0.03710
C1517       C  0.41285367  0.53840274  0.91066350    -0.10340
C1518       C  0.42832604  0.55859416  0.93799350     0.05850
C1519       C  0.43813596  0.60317298  0.94138683    -0.04110
C1520       C  0.42899480  0.62473417  0.91959057    -0.08560
C1521       C  0.41095973  0.60369787  0.89307030     0.04970
C1522       C  0.40533051  0.56093912  0.88830844    -0.03590
Br1523     Br  0.39410779  0.53601955  0.85008627    -0.03280
H1524       H  0.40913737  0.50617673  0.90610695     0.08880
H1525       H  0.43655840  0.65853319  0.92349532     0.06900
Br1526     Br  0.46502202  0.63750892  0.97516615    -0.03710
C1527       C  0.21399538  0.58834593  0.92589534    -0.10340
C1528       C  0.20079272  0.59072641  0.89763157     0.05850
C1529       C  0.15742627  0.58014473  0.89424479    -0.04110
C1530       C  0.12812928  0.56498101  0.91782273    -0.08560
C1531       C  0.14088740  0.56000560  0.94555359     0.04970
C1532       C  0.18497142  0.57582354  0.94972785    -0.03590
Br1533     Br  0.20671455  0.58833613  0.98812281    -0.03280
H1534       H  0.24738496  0.59815308  0.92975045     0.08880
H1535       H  0.09467594  0.55478850  0.91397486     0.06900
Br1536     Br  0.13589668  0.58154761  0.85706750    -0.03710
C1537       C  0.40901949  0.83598093  0.93687905    -0.10340
C1538       C  0.45106158  0.85330298  0.94765412     0.05850
C1539       C  0.47901614  0.84083200  0.93252786    -0.04110
C1540       C  0.46586252  0.81317749  0.90787038    -0.08560
C1541       C  0.42554436  0.79940593  0.89540697     0.04970
C1542       C  0.39640757  0.81028828  0.91072320    -0.03590
Br1543     Br  0.34091407  0.79472127  0.89583130    -0.03280
H1544       H  0.38740356  0.84626907  0.94701802     0.08880
H1545       H  0.48900359  0.80529494  0.89692710     0.06900
Br1546     Br  0.03841544  0.86834911  0.93960254    -0.03710
C1547       C  0.21466243  0.48497124  0.73643137    -0.10340
C1548       C  0.24798892  0.97625915  0.72620686     0.05850
C1549       C  0.28768383  0.99867255  0.74087213    -0.04110
C1550       C  0.29326404  0.52690954  0.76449944    -0.08560
C1551       C  0.26015467  0.53436387  0.77538036     0.04970
C1552       C  0.22047775  0.51307566  0.76105402    -0.03590
Br1553     Br  0.17260610  0.51714354  0.77715437    -0.03280
H1554       H  0.18336256  0.96780693  0.72658851     0.08880
H1555       H  0.32412238  0.54249562  0.77507720     0.06900
Br1556     Br  0.33704782  0.99257432  0.73225053    -0.03710
C1557       C  0.49007319  0.70738577  0.76432192    -0.10340
C1558       C  0.48320587  0.73982445  0.77926109     0.05850
C1559       C  0.01179055  0.78357776  0.77245127    -0.04110
C1560       C  0.04190208  0.79386649  0.74908682    -0.08560
C1561       C  0.04753717  0.76143654  0.73294024     0.04970
C1562       C  0.02237984  0.71780619  0.74244780    -0.03590
Br1563     Br  0.53118477  0.67063871  0.72716125    -0.03280
H1564       H  0.47000943  0.67353423  0.76943138     0.08880
H1565       H  0.06122257  0.82749160  0.74349227     0.06900
Br1566     Br  0.00923799  0.83000402  0.79503069    -0.03710
C1567       C  0.24835658  0.72556424  0.76434952    -0.10340
C1568       C  0.28828930  0.75297349  0.77715008     0.05850
C1569       C  0.31411745  0.79357731  0.76402724    -0.04110
C1570       C  0.29965673  0.80617205  0.73956369    -0.08560
C1571       C  0.26004585  0.77845556  0.72633399     0.04970
C1572       C  0.23455923  0.73731965  0.73915968    -0.03590
Br1573     Br  0.18010263  0.69530360  0.72378728    -0.03280
H1574       H  0.22859552  0.69354158  0.77307387     0.08880
H1575       H  0.31971342  0.83811414  0.73079583     0.06900
Br1576     Br  0.36937505  0.83386888  0.77911350    -0.03710
C1577       C  0.29824030  0.68909539  0.97288308    -0.10340
C1578       C  0.33099733  0.68654260  0.98831665     0.05850
C1579       C  0.36826433  0.69272602  0.97339680    -0.04110
C1580       C  0.36803342  0.68991509  0.94373625    -0.08560
C1581       C  0.33174273  0.68296158  0.92901959     0.04970
C1582       C  0.29901052  0.68834494  0.94289915    -0.03590
Br1583     Br  0.25609493  0.69521345  0.92250065    -0.03280
H1584       H  0.27121977  0.68996173  0.98388937     0.08880
H1585       H  0.39569624  0.69169711  0.93204379     0.06900
Br1586     Br  0.42035441  0.70530902  0.49043146    -0.03710
C1587       C  0.37567151  0.66095714  0.69540011    -0.10340
C1588       C  0.35504885  0.67922843  0.67996644     0.05850
C1589       C  0.32754012  0.69283416  0.69374419    -0.04110
C1590       C  0.31889401  0.68527903  0.72287139    -0.08560
C1591       C  0.33675612  0.66341561  0.73792789     0.04970
C1592       C  0.36596690  0.65180848  0.72427359    -0.03590
Br1593     Br  0.38941634  0.61913604  0.74265407    -0.03280
H1594       H  0.39617049  0.65010726  0.68445328     0.08880
H1595       H  0.29773659  0.69595206  0.73360463     0.06900
Br1596     Br  0.29929410  0.71904233  0.67316928    -0.03710
C1597       C  0.44179989  0.59566168  0.68022317    -0.10340
C1598       C  0.42045575  0.55228695  0.68949977     0.05850
C1599       C  0.38564709  0.52256446  0.67198117    -0.04110
C1600       C  0.36764132  0.53819983  0.65141788    -0.08560
C1601       C  0.38858178  0.58186652  0.64242409     0.04970
C1602       C  0.42830911  0.60977664  0.65601778    -0.03590
Br1603     Br  0.46599770  0.66805937  0.64362930    -0.03280
H1604       H  0.47094512  0.61821949  0.69059458     0.08880
H1605       H  0.33789688  0.51533866  0.64158853     0.06900
Br1606     Br  0.36523666  0.96024889  0.67153359    -0.03710
C1607       C  0.21264564  0.58851286  0.67081734    -0.10340
C1608       C  0.19561534  0.58561749  0.64316758     0.05850
C1609       C  0.15147811  0.57308266  0.64125031    -0.04110
C1610       C  0.12468127  0.55750968  0.66573941    -0.08560
C1611       C  0.14169744  0.55933301  0.69324564     0.04970
C1612       C  0.18655362  0.57866528  0.69575550    -0.03590
Br1613     Br  0.21437150  0.59992698  0.73208212    -0.03280
H1614       H  0.24691865  0.60199524  0.67332172     0.08880
H1615       H  0.09070865  0.54665014  0.66359979     0.06900
Br1616     Br  0.12659148  0.58072760  0.60703622    -0.03710
C1617       C  0.42595977  0.78985363  0.67216001    -0.10340
C1618       C  0.41294558  0.79963061  0.64596746     0.05850
C1619       C  0.41751325  0.84208446  0.64376625    -0.04110
C1620       C  0.43172521  0.87197557  0.66763991    -0.08560
C1621       C  0.44726404  0.86334537  0.69313758     0.04970
C1622       C  0.44244096  0.82089644  0.69538341    -0.03710
Br1623     Br  0.45116228  0.80154458  0.73111046    -0.03280
H1624       H  0.42333775  0.75783880  0.67478642     0.08880
H1625       H  0.43247048  0.90311105  0.66552913     0.06900
Br1626     Br  0.41245533  0.86370561  0.60725016    -0.03710
C1627       C  0.22678483  0.51581661  0.51166800    -0.10340
C1628       C  0.26877321  0.54687258  0.51926949     0.05850
C1629       C  0.30169913  0.54908749  0.49985372    -0.04110
C1630       C  0.29270723  0.01897608  0.97594877    -0.08560
C1631       C  0.25040711  0.98842718  0.96893463     0.04970
C1632       C  0.21756594  0.98869853  0.98656538    -0.03590
Br1633     Br  0.15907563  0.95468929  0.97576541    -0.03280
H1634       H  0.20014285  0.51429683  0.52395262     0.08880
H1635       H  0.31868689  0.02081426  0.96208070     0.06900
Br1636     Br  0.35835814  0.59609759  0.50186285    -0.03710
C1637       C  0.50254516  0.79749364  0.52527373    -0.10340
C1638       C  0.48546742  0.75711862  0.53877625     0.05850
C1639       C  0.50094985  0.72751410  0.52955588    -0.04110
C1640       C  0.02696946  0.73608961  0.00460419    -0.08560
C1641       C  0.04205850  0.77541973  0.98971411     0.04970
C1642       C  0.03367885  0.80813810  0.00318891    -0.03590
Br1643     Br  0.07373048  0.86847186  0.00232239    -0.03280
H1644       H  0.49344709  0.82180038  0.53314783     0.08880
H1645       H  0.03613702  0.71176494  0.99709607     0.06900
Br1646     Br  0.48648176  0.67376946  0.54868122    -0.03710
C1647       C  0.21313993  0.73994985  0.49597211    -0.10340
C1648       C  0.23889904  0.77800521  0.98056665     0.05850
C1649       C  0.28169587  0.80389769  0.99028921    -0.04110
C1650       C  0.29685284  0.79191440  0.51457248    -0.08560
C1651       C  0.27068359  0.75440024  0.53031542     0.04970
C1652       C  0.22813462  0.72818404  0.52044375    -0.03590
Br1653     Br  0.18925975  0.67382619  0.53769915    -0.03280
H1654       H  0.18086036  0.71872765  0.48875313     0.08880
H1655       H  0.32983944  0.81207686  0.52102930     0.06900
Br1656     Br  0.32206867  0.85651460  0.97203886    -0.03710
O1657       O  0.83004945  0.24846877  0.04969518    -0.81330
O1658       O  0.81637148  0.13977555  0.14065871    -0.81350
O1659       O  0.72771239  0.13220643  0.10318198    -0.81360
O1660       O  0.90207992  0.23223491  0.12041060    -0.81300
O1661       O  0.75033639  0.08379144  0.11199357    -0.81420
O1662       O  0.87127031  0.26579642  0.10217538    -0.81340
O1663       O  0.88245162  0.19092532  0.13205408    -0.81330
O1664       O  0.76742093  0.21139279  0.07158353    -0.81360
C1665       C  0.79065236  0.23942035  0.05293766     1.08360
C1666       C  0.85112842  0.17000053  0.14962387     1.08250
C1667       C  0.72570784  0.10098805  0.11792040     1.08390
C1668       C  0.89536962  0.26556055  0.12159632     1.08260
O1669       O  0.91991487  0.25827829  0.05388142    -0.81330
O1670       O  0.81010301  0.09269413  0.06057498    -0.81400
O1671       O  0.78671318  0.16666705  0.02825554    -0.81340
O1672       O  0.88771429  0.13629498  0.10991982    -0.81320
O1673       O  0.82718262  0.07480850  0.11599735    -0.81370
O1674       O  0.85338861  0.18241317  0.03604787    -0.81340
O1675       O  0.93664761  0.21146593  0.07515217    -0.81300
O1676       O  0.74801723  0.08896117  0.05402523    -0.81370
Co1677     Co  0.86152017  0.22128390  0.07018974     1.51530
Co1678     Co  0.81311762  0.11767508  0.10142903     1.51690
Co1679     Co  0.75997689  0.15072395  0.06604359     1.51570
Co1680     Co  0.87656393  0.18304269  0.08824875     1.51470
O1681       O  0.81374960  0.17068866  0.09037196    -1.43260
C1682       C  0.94661436  0.24301368  0.05767862     1.08290
C1683       C  0.77629082  0.07790442  0.04569667     1.08380
C1684       C  0.82379432  0.17699780  0.51897789     1.08320
C1685       C  0.86717149  0.09752302  0.12086148     1.08290
O1686       O  0.79288313  0.15418015  0.27810967    -0.81330
O1687       O  0.90276829  0.16454367  0.37703426    -0.81350
O1688       O  0.92481398  0.25179118  0.29814018    -0.81360
O1689       O  0.80000581  0.06846942  0.31790131    -0.81300
O1690       O  0.92746537  0.19694675  0.31701990    -0.81420
O1691       O  0.74679667  0.08229434  0.30928974    -0.81340
O1692       O  0.87117200  0.10597955  0.35137224    -0.81330
O1693       O  0.86071076  0.16937054  0.28466449    -0.81360
C1694       C  0.82899421  0.15948609  0.26853898     1.08360
C1695       C  0.89609188  0.12607538  0.37200843     1.08250
C1696       C  0.94440882  0.22924316  0.29928477     1.08390
C1697       C  0.76911497  0.06321320  0.30214096     1.08260
O1698       O  0.74083350  0.13750286  0.35761835    -0.81330
O1699       O  0.93306771  0.24568570  0.36716493    -0.81400
O1700       O  0.84234168  0.23768977  0.29490986    -0.81340
O1701       O  0.82325389  0.12956504  0.39436035    -0.81320
O1702       O  0.84567232  0.19801652  0.38164632    -0.81370
O1703       O  0.78261364  0.21028361  0.31976548    -0.81340
O1704       O  0.75013393  0.08028427  0.36550119    -0.81300
O1705       O  0.88449296  0.25969295  0.35084847    -0.81370
Co1706     Co  0.76904016  0.14705677  0.31788597     1.51530
Co1707     Co  0.88433505  0.19694566  0.35041747     1.51690
Co1708     Co  0.87195452  0.21121696  0.31712639     1.51570
Co1709     Co  0.81236999  0.09926540  0.35571832     1.51470
O1710       O  0.82559269  0.15587264  0.33520156    -1.43260
C1711       C  0.73240602  0.10395858  0.37241765     1.08290
C1712       C  0.91517133  0.26939857  0.36911030     1.08380
C1713       C  0.80571698  0.23475436  0.29952425     1.08320
C1714       C  0.83017892  0.16863475  0.39983615     1.08290
O1715       O  0.75090421  0.33594988  0.20549188    -0.81330
O1716       O  0.63865277  0.31527933  0.11249824    -0.81350
O1717       O  0.63841084  0.23085639  0.15010467    -0.81360
O1718       O  0.74860390  0.43074174  0.13320856    -0.81300
O1719       O  0.58860300  0.25162953  0.14171225    -0.81420
O1720       O  0.76793747  0.38425473  0.15037656    -0.81340
O1721       O  0.70677171  0.34765954  0.11576657    -0.81330
O1722       O  0.71599663  0.27091924  0.18424847    -0.81360
C1723       C  0.74326172  0.29610243  0.20298533     1.08360
C1724       C  0.67465090  0.33005054  0.10040086     1.08250
C1725       C  0.60636305  0.22708514  0.13563644     1.08390
C1726       C  0.77522678  0.41542286  0.13246189     1.08260
O1727       O  0.76380264  0.42184309  0.20370163    -0.81330
O1728       O  0.59407984  0.30979382  0.19446310    -0.81400
O1729       O  0.67096436  0.29097457  0.22716094    -0.81340
O1730       O  0.65344887  0.38974752  0.13284087    -0.81320
O1731       O  0.58485934  0.33683177  0.13787187    -0.81370
O1732       O  0.68451686  0.35799894  0.21834685    -0.81340
O1733       O  0.70694563  0.42215526  0.18680323    -0.81300
O1734       O  0.59465840  0.24753780  0.19896582    -0.81370
Co1735     Co  0.72381553  0.36783929  0.18531078     1.51530
Co1736     Co  0.62096526  0.31627956  0.15394449     1.51690
Co1737     Co  0.65630118  0.26264354  0.18850057     1.51570
Co1738     Co  0.70329779  0.37994236  0.15101148     1.51470
O1739       O  0.67251740  0.31872300  0.16754097    -1.43260
C1740       C  0.74001450  0.44003601  0.20391018     1.08290
C1741       C  0.58047941  0.27378883  0.20768109     1.08380
C1742       C  0.67425551  0.32751974  0.23548670     1.08320
C1743       C  0.61215995  0.37394747  0.12785541     1.08290
O1744       O  0.74265474  0.32535665  0.44221321    -0.81330
O1745       O  0.63892717  0.33795479  0.36481878    -0.81350
O1746       O  0.61900854  0.24355161  0.40625446    -0.81360
O1747       O  0.74258585  0.40938118  0.38303417    -0.81300
O1748       O  0.58190901  0.27201540  0.38725404    -0.81420
O1749       O  0.78985704  0.40201762  0.41061180    -0.81340
O1750       O  0.70450130  0.39295797  0.37082126    -0.81330
O1751       O  0.67772889  0.27399170  0.45583857    -0.81360
C1752       C  0.71875287  0.29242883  0.45750701     1.08360
C1753       C  0.67513825  0.36337081  0.35479289     1.08250
C1754       C  0.59406357  0.24286404  0.38632055     1.08390
C1755       C  0.78076893  0.41209630  0.38621646     1.08260
O1756       O  0.74196511  0.41927557  0.44792007    -0.81330
O1757       O  0.58124677  0.31317012  0.44487748    -0.81400
O1758       O  0.65415027  0.33995129  0.46602796    -0.81340
O1759       O  0.64748680  0.40980423  0.38853413    -0.81320
O1760       O  0.58031523  0.35431775  0.38815904    -0.81370
O1761       O  0.72465661  0.37729950  0.46260059    -0.81340
O1762       O  0.72077707  0.45771587  0.42179088    -0.81300
O1763       O  0.59014816  0.25802493  0.46207897    -0.81370
Co1764     Co  0.73027557  0.36582654  0.41880631     1.51530
Co1765     Co  0.61560909  0.33180402  0.40385070     1.51690
Co1766     Co  0.63658343  0.29141859  0.43770053     1.51570
Co1767     Co  0.69002525  0.39556121  0.41260948     1.51470
O1768       O  0.66858308  0.33098113  0.41195465    -1.43260
C1769       C  0.73947912  0.45519869  0.44432832     1.08290
C1770       C  0.57153575  0.28203502  0.46381348     1.08380
C1771       C  0.68991454  0.35928694  0.97811108     1.08320
C1772       C  0.60772727  0.39243574  0.37990413     1.08290
O1773       O  0.94515788  0.39922749  0.48712305    -0.81330
O1774       O  0.50594256  0.97958112  0.05000329    -0.81350
O1775       O  0.54555715  0.44868601  0.01775943    -0.81360
O1776       O  0.91395488  0.50568689  0.02267129    -0.81300
O1777       O  0.59245950  0.50823069  0.03863966    -0.81420
O1778       O  0.90518412  0.43932362  0.01965344    -0.81340
O1779       O  0.98270983  0.02880762  0.05591176    -0.81330
O1780       O  0.00522660  0.42390009  0.46283987    -0.81360
C1781       C  0.96847417  0.39265223  0.46823497     1.08360
C1782       C  0.48842996  0.99800213  0.06524593     1.08250
C1783       C  0.57469356  0.46710716  0.03746195     1.08390
C1784       C  0.89677675  0.46726210  0.03257868     1.08260
O1785       O  0.91599590  0.99507568  0.46697624    -0.81330
O1786       O  0.59073502  0.04893748  0.48681271    -0.81400
O1787       O  0.52659237  0.50792235  0.44874635    -0.81340
O1788       O  0.53762918  0.09415987  0.01671252    -0.81320
O1789       O  0.56398308  0.06499588  0.04463966    -0.81370
O1790       O  0.95929355  0.45638827  0.44162635    -0.81340
O1791       O  0.97156144  0.05914525  0.97681428    -0.81300
O1792       O  0.59035266  0.99124015  0.46588039    -0.81370
Co1793     Co  0.93447193  0.44998785  0.48081071     1.51530
Co1794     Co  0.54635225  0.01148375  0.01914899     1.51690
Co1795     Co  0.53620062  0.48229615  0.48306991     1.51570
Co1796     Co  0.97776593  0.04452488  0.01639143     1.51470
O1797       O  0.49063805  0.99649717  0.99960716    -1.43260
C1798       C  0.93918563  0.03588391  0.46145060     1.08290
C1799       C  0.60756478  0.03274686  0.46782708     1.08380
C1800       C  0.49477985  0.48574151  0.43254278     1.08320
C1801       C  0.55869914  0.09734705  0.03924763     1.08290
O1802       O  0.94951965  0.42043317  0.22614459    -0.81330
O1803       O  0.54647194  0.05610135  0.30928710    -0.81350
O1804       O  0.53125075  0.45842566  0.27402012    -0.81360
O1805       O  0.91610163  0.51061426  0.28540455    -0.81300
O1806       O  0.59065101  0.51846127  0.28199493    -0.81420
O1807       O  0.90109559  0.44654254  0.26365844    -0.81340
O1808       O  0.98389109  0.00216346  0.29694335    -0.81330
O1809       O  0.01058600  0.41728428  0.21917108    -0.81360
C1810       C  0.97005305  0.40045360  0.21521828     1.08360
C1811       C  0.51047540  0.02544654  0.31588664     1.08250
C1812       C  0.56553847  0.47908615  0.28815549     1.08390
C1813       C  0.89256783  0.46847678  0.28369340     1.08260
O1814       O  0.93401079  0.99907809  0.21535606    -0.81330
O1815       O  0.60815593  0.07534695  0.23400653    -0.81400
O1816       O  0.52324030  0.49144894  0.19561073    -0.81340
O1817       O  0.50223667  0.09040358  0.28802773    -0.81320
O1818       O  0.56544563  0.11639831  0.26632207    -0.81370
O1819       O  0.95610905  0.47688293  0.20329781    -0.81340
O1820       O  0.96016238  0.06333919  0.23476525    -0.81300
O1821       O  0.58931373  0.00490733  0.22388064    -0.81370
Co1822     Co  0.96067530  0.47936631  0.24773259     1.51530
Co1823     Co  0.57501182  0.06487028  0.27102005     1.51690
Co1824     Co  0.52605125  0.47632622  0.23417036     1.51570
Co1825     Co  0.97320025  0.03167908  0.26579658     1.51470
O1826       O  0.52262212  0.02904435  0.24526053    -1.43260
C1827       C  0.93849457  0.03799206  0.21432839     1.08290
C1828       C  0.61218579  0.04584377  0.21878620     1.08380
C1829       C  0.98811956  0.48451569  0.18596064     1.08320
C1830       C  0.54065951  0.12130326  0.28500129     1.08290
C1831       C  0.98847313  0.47251915  0.35239047    -0.10340
C1832       C  0.50102146  0.01524479  0.34559215     0.05850
C1833       C  0.50914895  0.04731289  0.36753788    -0.04110
C1834       C  0.50914608  0.03736598  0.39597448    -0.08560
C1835       C  0.49815506  0.49492747  0.40266696     0.04970
C1836       C  0.98661800  0.46210423  0.38083663    -0.03590
Br1837     Br  0.97174017  0.40364089  0.38668483    -0.03280
H1838       H  0.98212066  0.44763296  0.33543002     0.08880
H1839       H  0.51521323  0.06206801  0.41301211     0.06900
Br1840     Br  0.51088276  0.10123788  0.36199446    -0.03710
C1841       C  0.49916531  0.96425577  0.10723280    -0.10340
C1842       C  0.48102524  0.98849508  0.09558903     0.05850
C1843       C  0.96483861  0.01064021  0.11410309    -0.04110
C1844       C  0.96781871  0.50853655  0.14350298    -0.08560
C1845       C  0.98496794  0.48414011  0.15504234     0.04970
C1846       C  0.50269508  0.96317286  0.13680674    -0.03590
Br1847     Br  0.53497761  0.93559031  0.15020013    -0.03280
H1848       H  0.51328575  0.94842832  0.09344625     0.08880
H1849       H  0.96095481  0.52951606  0.15723075     0.06900
Br1850     Br  0.94411385  0.04960275  0.10197979    -0.03710
C1851       C  0.59888425  0.40353885  0.32708379    -0.10340
C1852       C  0.59622191  0.41435894  0.35661804     0.05850
C1853       C  0.58560478  0.44795612  0.36298835    -0.04110
C1854       C  0.57668795  0.46922852  0.34072843    -0.08560
C1855       C  0.57723043  0.45714436  0.31133167     0.04970
C1856       C  0.59032359  0.42509509  0.30464240    -0.03590
Br1857     Br  0.59916459  0.41183021  0.26498792    -0.03280
H1858       H  0.60790203  0.37836655  0.32135252     0.08880
H1859       H  0.56929516  0.49537029  0.34648637     0.06900
Br1860     Br  0.58240108  0.46455299  0.40211694    -0.03710
C1861       C  0.60802455  0.19568643  0.34827155    -0.10340
C1862       C  0.58064625  0.21133405  0.36040570     0.05850
C1863       C  0.54292160  0.20148784  0.34487625    -0.04110
C1864       C  0.53207497  0.17512973  0.31927748    -0.08560
C1865       C  0.55829713  0.15780515  0.30776728     0.04970
C1866       C  0.59752697  0.16973392  0.32226661    -0.03590
Br1867     Br  0.63926289  0.15361612  0.30681635    -0.03280
H1868       H  0.63826039  0.20452006  0.35862460     0.08880
H1869       H  0.50105470  0.16491809  0.30987719     0.06900
Br1870     Br  0.50140214  0.21758460  0.35990589    -0.03710
C1871       C  0.79312587  0.41902346  0.33215812    -0.10340
C1872       C  0.81028397  0.42201941  0.35990744     0.05850
C1873       C  0.85301363  0.42903929  0.36046611    -0.04110
C1874       C  0.87877245  0.44208278  0.33500597    -0.08560
C1875       C  0.86222427  0.44545953  0.30821245     0.04970
C1876       C  0.81777126  0.42756988  0.30654421    -0.03590
Br1877     Br  0.78877974  0.40362294  0.27084433    -0.03280
H1878       H  0.75971334  0.40722668  0.33010324     0.08880
H1879       H  0.91210252  0.45075658  0.33625579     0.06900
Br1880     Br  0.87704922  0.41916569  0.39437191    -0.03710
C1881       C  0.68535986  0.37998207  0.27589860    -0.10340
C1882       C  0.67061665  0.33642554  0.26596953     0.05850
C1883       C  0.65764984  0.30283297  0.28575349    -0.04110
C1884       C  0.66434552  0.31339582  0.31481755    -0.08560
C1885       C  0.68043064  0.35687093  0.32460308     0.04970
C1886       C  0.68985516  0.39029294  0.30531207    -0.03590
Br1887     Br  0.70837796  0.44952283  0.31864149    -0.03280
H1888       H  0.69436418  0.40609274  0.26092007     0.08880
H1889       H  0.65440604  0.28729283  0.33009610     0.06900
Br1890     Br  0.62722340  0.24228126  0.27477306    -0.03710
C1891       C  0.72025586  0.35922037  0.05637044    -0.10340
C1892       C  0.67916401  0.33457678  0.06879125     0.05850
C1893       C  0.64307637  0.32349956  0.05168252    -0.04110
C1894       C  0.64846554  0.33412614  0.02295518    -0.08560
C1895       C  0.68896835  0.35795877  0.01009258     0.04970
C1896       C  0.72527584  0.37228207  0.02752184    -0.03590
Br1897     Br  0.78108482  0.41291397  0.51428299    -0.03280
H1898       H  0.74848682  0.37041465  0.06947347     0.08880
H1899       H  0.61987051  0.32274587  0.01054701     0.06900
Br1900     Br  0.58490726  0.29666476  0.06547275    -0.03710
C1901       C  0.55168203  0.40118219  0.06954261    -0.10340
C1902       C  0.58347418  0.44248145  0.06070264     0.05850
C1903       C  0.62153902  0.46189192  0.07713830    -0.04110
C1904       C  0.62915336  0.43955569  0.09898080    -0.08560
C1905       C  0.59858984  0.39771851  0.10701819     0.04970
C1906       C  0.55841466  0.37929948  0.09270208    -0.03590
Br1907     Br  0.51051756  0.32613820  0.10472949    -0.03280
H1908       H  0.52065727  0.38684234  0.05933946     0.08880
H1909       H  0.65962654  0.45566601  0.11003881     0.06900
Br1910     Br  0.66467970  0.01993987  0.07272597    -0.03710
C1911       C  0.60050235  0.20758496  0.08197538    -0.10340
C1912       C  0.59045943  0.19401425  0.11086084     0.05850
C1913       C  0.56930974  0.14876024  0.11551445    -0.04110
C1914       C  0.55868430  0.11863693  0.09187040    -0.08560
C1915       C  0.56851429  0.13205608  0.06287479     0.04970
C1916       C  0.58881807  0.17733596  0.05816850    -0.03590
Br1917     Br  0.60342300  0.19942930  0.01992824    -0.03280
H1918       H  0.61921342  0.24187148  0.07792019     0.08880
H1919       H  0.54323826  0.08416050  0.09635695     0.06900
Br1920     Br  0.55562575  0.12642462  0.15391939    -0.03710
C1921       C  0.81882461  0.46689881  0.09337693    -0.10340
C1922       C  0.80847601  0.42847655  0.10822026     0.05850
C1923       C  0.82607805  0.40158627  0.09692264    -0.04110
C1924       C  0.85436546  0.41459134  0.07259496    -0.08560
C1925       C  0.86637401  0.45448863  0.05869528     0.04970
C1926       C  0.84801346  0.48056129  0.07000118    -0.03590
Br1927     Br  0.86034345  0.53544315  0.05484250    -0.03280
H1928       H  0.80370438  0.48680852  0.09983590     0.08880
H1929       H  0.86642378  0.39280527  0.06418036     0.06900
Br1930     Br  0.80769833  0.34390810  0.11090772    -0.03710
C1931       C  0.91285388  0.03840280  0.41066342    -0.10340
C1932       C  0.92832602  0.05859409  0.43799348     0.05850
C1933       C  0.93813578  0.10317286  0.44138690    -0.04110
C1934       C  0.92899459  0.12473406  0.41959066    -0.08560
C1935       C  0.91095971  0.10369786  0.39307033     0.04970
C1936       C  0.90533073  0.06093920  0.38830838    -0.03590
Br1937     Br  0.89410844  0.03601991  0.35008614    -0.03280
H1938       H  0.90913782  0.00617689  0.40610680     0.08880
H1939       H  0.93655803  0.15853303  0.42349547     0.06900
Br1940     Br  0.96502171  0.13750870  0.47516628    -0.03710
C1941       C  0.71399532  0.08834592  0.42589536    -0.10340
C1942       C  0.70079267  0.09072642  0.39763158     0.05850
C1943       C  0.65742622  0.08014472  0.39424480    -0.04110
C1944       C  0.62812922  0.06498098  0.41782274    -0.08560
C1945       C  0.64088733  0.06000555  0.44555360     0.04970
C1946       C  0.68497135  0.07582351  0.44972787    -0.03590
Br1947     Br  0.70671447  0.08833609  0.48812283    -0.03280
H1948       H  0.74738490  0.09815308  0.42975047     0.08880
H1949       H  0.59467588  0.05478846  0.41397486     0.06900
Br1950     Br  0.63589664  0.08154765  0.35706752    -0.03710
C1951       C  0.90901944  0.33598083  0.43687903    -0.10340
C1952       C  0.95106153  0.35330289  0.44765410     0.05850
C1953       C  0.97901610  0.34083195  0.43252783    -0.04110
C1954       C  0.96586251  0.31317745  0.40787035    -0.08560
C1955       C  0.92554435  0.29940588  0.39540693     0.04970
C1956       C  0.89640754  0.31028820  0.41072317    -0.03590
Br1957     Br  0.84091404  0.29472120  0.39583126    -0.03280
H1958       H  0.88740349  0.34626894  0.44701800     0.08880
H1959       H  0.98900359  0.30529493  0.39692706     0.06900
Br1960     Br  0.53841540  0.36834904  0.43960255    -0.03710
C1961       C  0.71466245  0.98497127  0.23643138    -0.10340
C1962       C  0.74798895  0.47625922  0.22620687     0.05850
C1963       C  0.78768386  0.49867264  0.24087215    -0.04110
C1964       C  0.79326405  0.02690959  0.26449946    -0.08560
C1965       C  0.76015466  0.03436388  0.27538039     0.04970
C1966       C  0.72047774  0.01307567  0.26105404    -0.03590
Br1967     Br  0.67260608  0.01714352  0.27715439    -0.03280
H1968       H  0.68336257  0.46780697  0.22658852     0.08880
H1969       H  0.82412239  0.04249568  0.27507722     0.06900
Br1970     Br  0.83704786  0.49257443  0.23225055    -0.03710
C1971       C  0.99007322  0.20738575  0.26432190    -0.10340
C1972       C  0.98320587  0.23982440  0.27926108     0.05850
C1973       C  0.51179054  0.28357773  0.27245126    -0.04110
C1974       C  0.54190207  0.29386649  0.24908682    -0.08560
C1975       C  0.54753720  0.26143657  0.23294023     0.04970
C1976       C  0.52237988  0.21780620  0.24244779    -0.03590
Br1977     Br  0.03118485  0.17063875  0.22716123    -0.03280
H1978       H  0.97000948  0.17353420  0.26943135     0.08880
H1979       H  0.56122254  0.32749161  0.24349228     0.06900
Br1980     Br  0.50923796  0.33000398  0.29503070    -0.03710
C1981       C  0.74835660  0.22556427  0.26434950    -0.10340
C1982       C  0.78828931  0.25297350  0.27715007     0.05850
C1983       C  0.81411748  0.29357733  0.26402724    -0.04110
C1984       C  0.79965677  0.30617210  0.23956371    -0.08560
C1985       C  0.76004590  0.27845563  0.22633399     0.04970
C1986       C  0.73455926  0.23731971  0.23915966    -0.03590
Br1987     Br  0.68010267  0.19530369  0.22378725    -0.03280
H1988       H  0.72859552  0.19354160  0.27307383     0.08880
H1989       H  0.81971347  0.33811420  0.23079586     0.06900
Br1990     Br  0.86937507  0.33386888  0.27911353    -0.03710
C1991       C  0.79824021  0.18909534  0.47288308    -0.10340
C1992       C  0.83099726  0.18654258  0.48831664     0.05850
C1993       C  0.86826429  0.19272609  0.47339678    -0.04110
C1994       C  0.86803341  0.18991525  0.44373623    -0.08560
C1995       C  0.83174270  0.18296167  0.42901957     0.04970
C1996       C  0.79901044  0.18834493  0.44289914    -0.03590
Br1997     Br  0.75609484  0.19521343  0.42250065    -0.03280
H1998       H  0.77121965  0.18996163  0.48388936     0.08880
H1999       H  0.89569627  0.19169737  0.43204377     0.06900
Br2000     Br  0.92035448  0.20530906  0.99043146    -0.03710
C2001       C  0.87567156  0.16095722  0.19540011    -0.10340
C2002       C  0.85504887  0.17922847  0.17996644     0.05850
C2003       C  0.82754007  0.19283412  0.19374420    -0.04110
C2004       C  0.81889393  0.18527895  0.22287139    -0.08560
C2005       C  0.83675608  0.16341555  0.23792789     0.04970
C2006       C  0.86596692  0.15180850  0.22427359    -0.03590
Br2007     Br  0.88941639  0.11913608  0.24265406    -0.03280
H2008       H  0.89617060  0.15010741  0.18445329     0.08880
H2009       H  0.79773647  0.19595191  0.23360462     0.06900
Br2010     Br  0.79929399  0.21904223  0.17316929    -0.03710
C2011       C  0.94179993  0.09566174  0.18022318    -0.10340
C2012       C  0.92045578  0.05228701  0.18949978     0.05850
C2013       C  0.88564712  0.02256452  0.17198118    -0.04110
C2014       C  0.86764135  0.03819989  0.15141789    -0.08560
C2015       C  0.88858182  0.08186658  0.14242410     0.04970
C2016       C  0.92830914  0.10977669  0.15601779    -0.03590
Br2017     Br  0.96599775  0.16805942  0.14362930    -0.03280
H2018       H  0.97094515  0.11821955  0.19059459     0.08880
H2019       H  0.83789691  0.01533872  0.14158854     0.06900
Br2020     Br  0.86523668  0.46024894  0.17153362    -0.03710
C2021       C  0.71264566  0.08851287  0.17081734    -0.10340
C2022       C  0.69561538  0.08561754  0.14316758     0.05850
C2023       C  0.65147816  0.07308274  0.14125031    -0.04110
C2024       C  0.62468131  0.05750975  0.16573941    -0.08560
C2025       C  0.64169746  0.05933304  0.19324564     0.04970
C2026       C  0.68655363  0.07866527  0.19575550    -0.03590
Br2027     Br  0.71437150  0.09992693  0.23208212    -0.03280
H2028       H  0.74691867  0.10199522  0.17332172     0.08880
H2029       H  0.59070870  0.04665025  0.16359978     0.06900
Br2030     Br  0.62659155  0.08072774  0.10703623    -0.03710
C2031       C  0.92595978  0.28985366  0.17216002    -0.10340
C2032       C  0.91294561  0.29963065  0.14596747     0.05850
C2033       C  0.91751329  0.34208451  0.14376625    -0.04110
C2034       C  0.93172524  0.37197561  0.16763991    -0.08560
C2035       C  0.94726405  0.36334540  0.19313759     0.04970
C2036       C  0.94244096  0.32089648  0.19538343    -0.03710
Br2037     Br  0.95116228  0.30154461  0.23111048    -0.03280
H2038       H  0.92333775  0.25783883  0.17478644     0.08880
H2039       H  0.93247052  0.40311109  0.16552913     0.06900
Br2040     Br  0.91245543  0.36370567  0.10725015    -0.03710
C2041       C  0.72678490  0.01581662  0.01166802    -0.10340
C2042       C  0.76877329  0.04687263  0.01926949     0.05850
C2043       C  0.80169920  0.04908754  0.99985370    -0.04110
C2044       C  0.79270717  0.51897602  0.47594879    -0.08560
C2045       C  0.75040705  0.48842713  0.46893464     0.04970
C2046       C  0.71756587  0.48869851  0.48656538    -0.03590
Br2047     Br  0.65907556  0.45468928  0.47576539    -0.03280
H2048       H  0.70014293  0.01429682  0.02395265     0.08880
H2049       H  0.81868683  0.52081420  0.46208073     0.06900
Br2050     Br  0.85835821  0.09609764  0.00186283    -0.03710
C2051       C  0.00254522  0.29749369  0.02527374    -0.10340
C2052       C  0.98546747  0.25711866  0.03877626     0.05850
C2053       C  0.00094991  0.22751415  0.02955590    -0.04110
C2054       C  0.52696939  0.23608954  0.50460417    -0.08560
C2055       C  0.54205845  0.27541967  0.48971411     0.04970
C2056       C  0.53367881  0.30813805  0.50318891    -0.03590
Br2057     Br  0.57373048  0.36847180  0.50232240    -0.03280
H2058       H  0.99344715  0.32180043  0.03314784     0.08880
H2059       H  0.53613692  0.21176485  0.49709603     0.06900
Br2060     Br  0.98648180  0.17376950  0.04868122    -0.03710
C2061       C  0.71314000  0.23994986  0.99597209    -0.10340
C2062       C  0.73889900  0.27800517  0.48056665     0.05850
C2063       C  0.78169583  0.30389763  0.49028919    -0.04110
C2064       C  0.79685288  0.29191446  0.01457250    -0.08560
C2065       C  0.77068364  0.25440027  0.03031542     0.04970
C2066       C  0.72813469  0.22818404  0.02044373    -0.03590
Br2067     Br  0.68925985  0.17382615  0.03769909    -0.03280
H2068       H  0.68086045  0.21872762  0.98875309     0.08880
H2069       H  0.82983946  0.31207694  0.02102934     0.06900
Br2070     Br  0.82206865  0.35651452  0.47203882    -0.03710
O2071       O  0.83004939  0.24846872  0.54969517    -0.81330
O2072       O  0.81637142  0.13977551  0.64065871    -0.81350
O2073       O  0.72771232  0.13220640  0.60318199    -0.81360
O2074       O  0.90207988  0.23223484  0.62041058    -0.81300
O2075       O  0.75033631  0.08379140  0.61199358    -0.81420
O2076       O  0.87127028  0.26579636  0.60217537    -0.81340
O2077       O  0.88245157  0.19092525  0.63205406    -0.81330
O2078       O  0.76742086  0.21139274  0.57158353    -0.81360
C2079       C  0.79065230  0.23942030  0.55293766     1.08360
C2080       C  0.85112838  0.17000048  0.64962386     1.08250
C2081       C  0.72570777  0.10098801  0.61792041     1.08390
C2082       C  0.89536960  0.26556048  0.62159631     1.08260
O2083       O  0.91991482  0.25827821  0.55388140    -0.81330
O2084       O  0.81010290  0.09269404  0.56057500    -0.81400
O2085       O  0.78671308  0.16666697  0.52825554    -0.81340
O2086       O  0.88771421  0.13629489  0.60991980    -0.81320
O2087       O  0.82718252  0.07480843  0.61599736    -0.81370
O2088       O  0.85338852  0.18241312  0.53604784    -0.81340
O2089       O  0.93664753  0.21146583  0.57515214    -0.81300
O2090       O  0.74801713  0.08896110  0.55402525    -0.81370
Co2091     Co  0.86152011  0.22128383  0.57018972     1.51530
Co2092     Co  0.81311754  0.11767502  0.60142904     1.51690
Co2093     Co  0.75997681  0.15072389  0.56604359     1.51570
Co2094     Co  0.87656386  0.18304261  0.58824874     1.51470
O2095       O  0.81374953  0.17068861  0.59037195    -1.43260
C2096       C  0.94661430  0.24301358  0.55767860     1.08290
C2097       C  0.77629071  0.07790434  0.54569670     1.08380
C2098       C  0.82379443  0.17699786  0.01897791     1.08320
C2099       C  0.86717140  0.09752294  0.62086147     1.08290
O2100       O  0.79288321  0.15418024  0.77810967    -0.81330
O2101       O  0.90276838  0.16454370  0.87703423    -0.81350
O2102       O  0.92481406  0.25179129  0.79814022    -0.81360
O2103       O  0.80000589  0.06846948  0.81790124    -0.81300
O2104       O  0.92746542  0.19694682  0.81701990    -0.81420
O2105       O  0.74679673  0.08229439  0.80928970    -0.81340
O2106       O  0.87117211  0.10597963  0.85137216    -0.81330
O2107       O  0.86071084  0.16937066  0.78466449    -0.81360
C2108       C  0.82899429  0.15948621  0.76853898     1.08360
C2109       C  0.89609198  0.12607542  0.87200837     1.08250
C2110       C  0.94440887  0.22924324  0.79928479     1.08390
C2111       C  0.76911503  0.06321324  0.80214092     1.08260
O2112       O  0.74083358  0.13750288  0.85761834    -0.81330
O2113       O  0.93306776  0.24568574  0.86716497    -0.81400
O2114       O  0.84234174  0.23768987  0.79490991    -0.81340
O2115       O  0.82325399  0.12956500  0.89436031    -0.81320
O2116       O  0.84567239  0.19801650  0.88164635    -0.81370
O2117       O  0.78261371  0.21028366  0.81976552    -0.81340
O2118       O  0.75013402  0.08028428  0.86550116    -0.81300
O2119       O  0.88449300  0.25969298  0.85084852    -0.81370
Co2120     Co  0.76904023  0.14705682  0.81788597     1.51530
Co2121     Co  0.88433511  0.19694570  0.85041749     1.51690
Co2122     Co  0.87195459  0.21121704  0.81712641     1.51570
Co2123     Co  0.81237008  0.09926543  0.85571827     1.51470
O2124       O  0.82559277  0.15587269  0.83520155    -1.43260
C2125       C  0.73240611  0.10395859  0.87241763     1.08290
C2126       C  0.91517137  0.26939860  0.86911035     1.08380
C2127       C  0.80571704  0.23475442  0.79952429     1.08320
C2128       C  0.83017902  0.16863469  0.89983616     1.08290
O2129       O  0.75090419  0.33594980  0.70549188    -0.81330
O2130       O  0.63865274  0.31527921  0.61249824    -0.81350
O2131       O  0.63841082  0.23085629  0.65010469    -0.81360
O2132       O  0.74860387  0.43074165  0.63320857    -0.81300
O2133       O  0.58860298  0.25162943  0.64171227    -0.81420
O2134       O  0.76793744  0.38425464  0.65037657    -0.81340
O2135       O  0.70677168  0.34765946  0.61576657    -0.81330
O2136       O  0.71599660  0.27091915  0.68424849    -0.81360
C2137       C  0.74326171  0.29610235  0.70298534     1.08360
C2138       C  0.67465087  0.33005044  0.60040086     1.08250
C2139       C  0.60636303  0.22708503  0.63563645     1.08390
C2140       C  0.77522675  0.41542277  0.63246189     1.08260
O2141       O  0.76380262  0.42184301  0.70370164    -0.81330
O2142       O  0.59407984  0.30979376  0.69446309    -0.81400
O2143       O  0.67096433  0.29097449  0.72716095    -0.81340
O2144       O  0.65344884  0.38974742  0.63284087    -0.81320
O2145       O  0.58485931  0.33683166  0.63787185    -0.81370
O2146       O  0.68451683  0.35799886  0.71834685    -0.81340
O2147       O  0.70694561  0.42215517  0.68680323    -0.81300
O2148       O  0.59465839  0.24753773  0.69896583    -0.81370
Co2149     Co  0.72381550  0.36783921  0.68531078     1.51530
Co2150     Co  0.62096524  0.31627947  0.65394448     1.51690
Co2151     Co  0.65630116  0.26264346  0.68850058     1.51570
Co2152     Co  0.70329776  0.37994227  0.65101148     1.51470
O2153       O  0.67251738  0.31872291  0.66754097    -1.43260
C2154       C  0.74001448  0.44003593  0.70391018     1.08290
C2155       C  0.58047941  0.27378878  0.70768109     1.08380
C2156       C  0.67425550  0.32751967  0.73548671     1.08320
C2157       C  0.61215992  0.37394736  0.62785540     1.08290
O2158       O  0.74265479  0.32535667  0.94221321    -0.81330
O2159       O  0.63892722  0.33795482  0.86481879    -0.81350
O2160       O  0.61900857  0.24355164  0.90625449    -0.81360
O2161       O  0.74258592  0.40938119  0.88303416    -0.81300
O2162       O  0.58190905  0.27201545  0.88725406    -0.81420
O2163       O  0.78985711  0.40201764  0.91061180    -0.81340
O2164       O  0.70450137  0.39295799  0.87082126    -0.81330
O2165       O  0.67772894  0.27399174  0.95583858    -0.81360
C2166       C  0.71875292  0.29242886  0.95750702     1.08360
C2167       C  0.67513830  0.36337082  0.85479290     1.08250
C2168       C  0.59406359  0.24286406  0.88632057     1.08390
C2169       C  0.78076899  0.41209631  0.88621646     1.08260
O2170       O  0.74196520  0.41927561  0.94792008    -0.81330
O2171       O  0.58124684  0.31317022  0.94487750    -0.81400
O2172       O  0.65415034  0.33995135  0.96602797    -0.81340
O2173       O  0.64748689  0.40980429  0.88853413    -0.81320
O2174       O  0.58031532  0.35431782  0.88815904    -0.81370
O2175       O  0.72465669  0.37729956  0.96260060    -0.81340
O2176       O  0.72077717  0.45771592  0.92179088    -0.81300
O2177       O  0.59014821  0.25802502  0.96207899    -0.81370
Co2178     Co  0.73027564  0.36582657  0.91880632     1.51530
Co2179     Co  0.61560916  0.33180408  0.90385072     1.51690
Co2180     Co  0.63658348  0.29141864  0.93770055     1.51570
Co2181     Co  0.69002533  0.39556126  0.91260948     1.51470
O2182       O  0.66858314  0.33098117  0.91195466    -1.43260
C2183       C  0.73947922  0.45519874  0.94432833     1.08290
C2184       C  0.57153582  0.28203513  0.96381351     1.08380
C2185       C  0.68991446  0.35928687  0.47811108     1.08320
C2186       C  0.60772736  0.39243581  0.87990413     1.08290
O2187       O  0.94515796  0.39922758  0.98712307    -0.81330
O2188       O  0.50594244  0.97958099  0.55000328    -0.81350
O2189       O  0.54555711  0.44868591  0.51775941    -0.81360
O2190       O  0.91395481  0.50568679  0.52267129    -0.81300
O2191       O  0.59245945  0.50823058  0.53863965    -0.81420
O2192       O  0.90518405  0.43932352  0.51965343    -0.81340
O2193       O  0.98270968  0.02880747  0.55591175    -0.81330
O2194       O  0.00522668  0.42390017  0.96283988    -0.81360
C2195       C  0.96847425  0.39265232  0.96823499     1.08360
C2196       C  0.48842982  0.99800199  0.56524592     1.08250
C2197       C  0.57469352  0.46710705  0.53746194     1.08390
C2198       C  0.89677668  0.46726200  0.53257868     1.08260
O2199       O  0.91599594  0.99507579  0.96697628    -0.81330
O2200       O  0.59073513  0.04893757  0.98681269    -0.81400
O2201       O  0.52659244  0.50792242  0.94874634    -0.81340
O2202       O  0.53762906  0.09415976  0.51671254    -0.81320
O2203       O  0.56398294  0.06499574  0.54463969    -0.81370
O2204       O  0.95929362  0.45638835  0.94162636    -0.81340
O2205       O  0.97156139  0.05914515  0.47681426    -0.81300
O2206       O  0.59035271  0.99124023  0.96588037    -0.81370
Co2207     Co  0.93447200  0.44998794  0.98081072     1.51530
Co2208     Co  0.54635214  0.01148363  0.51914900     1.51690
Co2209     Co  0.53620068  0.48229624  0.98306992     1.51570
Co2210     Co  0.97776582  0.04452475  0.51639142     1.51470
O2211       O  0.49063795  0.99649705  0.49960715    -1.43260
C2212       C  0.93918566  0.03588402  0.96145063     1.08290
C2213       C  0.60756486  0.03274693  0.96782706     1.08380
C2214       C  0.49477992  0.48574158  0.93254278     1.08320
C2215       C  0.55869901  0.09734693  0.53924766     1.08290
O2216       O  0.94951965  0.42043311  0.72614458    -0.81330
O2217       O  0.54647188  0.05610131  0.80928711    -0.81350
O2218       O  0.53125078  0.45842564  0.77402012    -0.81360
O2219       O  0.91610165  0.51061424  0.78540454    -0.81300
O2220       O  0.59065104  0.51846126  0.78199490    -0.81420
O2221       O  0.90109560  0.44654251  0.76365843    -0.81340
O2222       O  0.98389104  0.00216342  0.79694334    -0.81330
O2223       O  0.01058600  0.41728422  0.71917108    -0.81360
C2224       C  0.97005304  0.40045355  0.71521828     1.08360
C2225       C  0.51047533  0.02544651  0.81588664     1.08250
C2226       C  0.56553851  0.47908615  0.78815548     1.08390
C2227       C  0.89256785  0.46847675  0.78369339     1.08260
O2228       O  0.93401075  0.99907804  0.71535606    -0.81330
O2229       O  0.60815590  0.07534694  0.73400655    -0.81400
O2230       O  0.52324030  0.49144888  0.69561071    -0.81340
O2231       O  0.50223661  0.09040355  0.78802774    -0.81320
O2232       O  0.56544558  0.11639829  0.76632210    -0.81370
O2233       O  0.95610904  0.47688287  0.70329780    -0.81340
O2234       O  0.96016230  0.06333914  0.73476525    -0.81300
O2235       O  0.58931370  0.00490732  0.72388065    -0.81370
Co2236     Co  0.96067531  0.47936626  0.74773258     1.51530
Co2237     Co  0.57501177  0.06487026  0.77102007     1.51690
Co2238     Co  0.52605126  0.47632618  0.73417035     1.51570
Co2239     Co  0.97320020  0.03167904  0.76579658     1.51470
O2240       O  0.52262208  0.02904434  0.74526053    -1.43260
C2241       C  0.93849451  0.03799200  0.71432839     1.08290
C2242       C  0.61218576  0.04584377  0.71878622     1.08380
C2243       C  0.98811956  0.48451561  0.68596063     1.08320
C2244       C  0.54065946  0.12130323  0.78500131     1.08290
C2245       C  0.98847319  0.47251916  0.85239047    -0.10340
C2246       C  0.50102134  0.01524478  0.84559214     0.05850
C2247       C  0.50914872  0.04731288  0.86753786    -0.04110
C2248       C  0.50914594  0.03736604  0.89597446    -0.08560
C2249       C  0.49815513  0.49492751  0.90266696     0.04970
C2250       C  0.98661808  0.46210426  0.88083664    -0.03590
Br2251     Br  0.97174028  0.40364093  0.88668486    -0.03280
H2252       H  0.98212073  0.44763295  0.83543003     0.08880
H2253       H  0.51521302  0.06206807  0.91301208     0.06900
Br2254     Br  0.51088215  0.10123769  0.86199436    -0.03710
C2255       C  0.49916521  0.96425567  0.60723280    -0.10340
C2256       C  0.48102511  0.98849495  0.59558903     0.05850
C2257       C  0.96483851  0.01064012  0.61410308    -0.04110
C2258       C  0.96781869  0.50853645  0.64350297    -0.08560
C2259       C  0.98496792  0.48414002  0.65504233     0.04970
C2260       C  0.50269503  0.96317281  0.63680674    -0.03590
Br2261     Br  0.53497758  0.93559028  0.65020013    -0.03280
H2262       H  0.51328563  0.94842820  0.59344625     0.08880
H2263       H  0.96095478  0.52951598  0.65723075     0.06900
Br2264     Br  0.94411371  0.04960262  0.60197977    -0.03710
C2265       C  0.59888434  0.40353890  0.82708380    -0.10340
C2266       C  0.59622201  0.41435901  0.85661804     0.05850
C2267       C  0.58560489  0.44795619  0.86298834    -0.04110
C2268       C  0.57668804  0.46922858  0.84072842    -0.08560
C2269       C  0.57723049  0.45714439  0.81133166     0.04970
C2270       C  0.59032367  0.42509512  0.80464239    -0.03590
Br2271     Br  0.59916466  0.41183022  0.76498792    -0.03280
H2272       H  0.60790212  0.37836660  0.82135253     0.08880
H2273       H  0.56929525  0.49537034  0.84648635     0.06900
Br2274     Br  0.58240123  0.46455312  0.90211693    -0.03710
C2275       C  0.60802449  0.19568633  0.84827161    -0.10340
C2276       C  0.58064623  0.21133403  0.86040574     0.05850
C2277       C  0.54292163  0.20148789  0.84487626    -0.04110
C2278       C  0.53207498  0.17512977  0.81927750    -0.08560
C2279       C  0.55829708  0.15780510  0.80776732     0.04970
C2280       C  0.59752689  0.16973382  0.82226667    -0.03590
Br2281     Br  0.63926280  0.15361600  0.80681642    -0.03280
H2282       H  0.63826030  0.20451991  0.85862469     0.08880
H2283       H  0.50105473  0.16491819  0.80987718     0.06900
Br2284     Br  0.50140224  0.21758480  0.85990584    -0.03710
C2285       C  0.79312591  0.41902337  0.83215811    -0.10340
C2286       C  0.81028402  0.42201939  0.85990744     0.05850
C2287       C  0.85301371  0.42903934  0.86046611    -0.04110
C2288       C  0.87877251  0.44208284  0.83500597    -0.08560
C2289       C  0.86222431  0.44545952  0.80821244     0.04970
C2290       C  0.81777129  0.42756980  0.80654420    -0.03590
Br2291     Br  0.78877978  0.40362282  0.77084433    -0.03280
H2292       H  0.75971336  0.40722653  0.83010323     0.08880
H2293       H  0.91210260  0.45075669  0.83625580     0.06900
Br2294     Br  0.87704932  0.41916579  0.89437192    -0.03710
C2295       C  0.68535990  0.37998203  0.77589860    -0.10340
C2296       C  0.67061668  0.33642549  0.76596954     0.05850
C2297       C  0.65764986  0.30283293  0.78575351    -0.04110
C2298       C  0.66434555  0.31339580  0.81481757    -0.08560
C2299       C  0.68043069  0.35687092  0.82460309     0.04970
C2300       C  0.68985523  0.39029292  0.80531206    -0.03590
Br2301     Br  0.70837808  0.44952283  0.81864146    -0.03280
H2302       H  0.69436424  0.40609269  0.76092006     0.08880
H2303       H  0.65440606  0.28729282  0.83009613     0.06900
Br2304     Br  0.62722342  0.24228121  0.77477310    -0.03710
C2305       C  0.72025581  0.35922034  0.55637044    -0.10340
C2306       C  0.67916397  0.33457668  0.56879124     0.05850
C2307       C  0.64307632  0.32349937  0.55168251    -0.04110
C2308       C  0.64846547  0.33412591  0.52295517    -0.08560
C2309       C  0.68896826  0.35795864  0.51009257     0.04970
C2310       C  0.72527576  0.37228203  0.52752184    -0.03590
Br2311     Br  0.78108493  0.41291391  0.01428299    -0.03280
H2312       H  0.74848678  0.37041469  0.56947347     0.08880
H2313       H  0.61987043  0.32274555  0.51054699     0.06900
Br2314     Br  0.58490720  0.29666451  0.56547274    -0.03710
C2315       C  0.55168199  0.40118208  0.56954259    -0.10340
C2316       C  0.58347415  0.44248134  0.56070261     0.05850
C2317       C  0.62153899  0.46189180  0.57713827    -0.04110
C2318       C  0.62915333  0.43955556  0.59898077    -0.08560
C2319       C  0.59858981  0.39771840  0.60701817     0.04970
C2320       C  0.55841463  0.37929936  0.59270206    -0.03590
Br2321     Br  0.51051753  0.32613808  0.60472947    -0.03280
H2322       H  0.52065722  0.38684223  0.55933945     0.08880
H2323       H  0.65962651  0.45566589  0.61003878     0.06900
Br2324     Br  0.66467961  0.01993978  0.57272599    -0.03710
C2325       C  0.60050234  0.20758484  0.58197539    -0.10340
C2326       C  0.59045939  0.19401414  0.61086086     0.05850
C2327       C  0.56930966  0.14876013  0.61551447    -0.04110
C2328       C  0.55868419  0.11863681  0.59187042    -0.08560
C2329       C  0.56851418  0.13205596  0.56287481     0.04970
C2330       C  0.58881801  0.17733584  0.55816852    -0.03590
Br2331     Br  0.60342290  0.19942917  0.51992826    -0.03280
H2332       H  0.61921345  0.24187135  0.57792021     0.08880
H2333       H  0.54323812  0.08416039  0.59635697     0.06900
Br2334     Br  0.55562564  0.12642452  0.65391941    -0.03710
C2335       C  0.81882458  0.46689872  0.59337694    -0.10340
C2336       C  0.80847597  0.42847646  0.60822027     0.05850
C2337       C  0.82607798  0.40158616  0.59692262    -0.04110
C2338       C  0.85436539  0.41459122  0.57259494    -0.08560
C2339       C  0.86637395  0.45448853  0.55869527     0.04970
C2340       C  0.84801343  0.48056120  0.57000119    -0.03590
Br2341     Br  0.86034343  0.53544308  0.55484253    -0.03280
H2342       H  0.80370436  0.48680844  0.59983592     0.08880
H2343       H  0.86642368  0.39280515  0.56418033     0.06900
Br2344     Br  0.80769823  0.34390797  0.61090769    -0.03710
C2345       C  0.91285351  0.03840267  0.91066355    -0.10340
C2346       C  0.92832606  0.05859417  0.93799350     0.05850
C2347       C  0.93813612  0.10317304  0.94138677    -0.04110
C2348       C  0.92899498  0.12473422  0.91959050    -0.08560
C2349       C  0.91095976  0.10369786  0.89307028     0.04970
C2350       C  0.90533036  0.06093903  0.88830847    -0.03590
Br2351     Br  0.89410736  0.03601928  0.85008636    -0.03280
H2352       H  0.90913704  0.00617658  0.90610705     0.08880
H2353       H  0.93655869  0.15853329  0.92349520     0.06900
Br2354     Br  0.96502230  0.13750905  0.97516605    -0.03710
C2355       C  0.71399542  0.08834598  0.92589535    -0.10340
C2356       C  0.70079276  0.09072642  0.89763157     0.05850
C2357       C  0.65742631  0.08014470  0.89424477    -0.04110
C2358       C  0.62812931  0.06498098  0.91782270    -0.08560
C2359       C  0.64088742  0.06000561  0.94555358     0.04970
C2360       C  0.68497144  0.07582359  0.94972785    -0.03590
Br2361     Br  0.70671456  0.08833623  0.98812282    -0.03280
H2362       H  0.74738500  0.09815316  0.92975047     0.08880
H2363       H  0.59467597  0.05478844  0.91397482     0.06900
Br2364     Br  0.63589674  0.08154754  0.85706747    -0.03710
C2365       C  0.90901952  0.33598090  0.93687906    -0.10340
C2366       C  0.95106162  0.35330296  0.94765413     0.05850
C2367       C  0.97901618  0.34083201  0.93252786    -0.04110
C2368       C  0.96586257  0.31317748  0.90787039    -0.08560
C2369       C  0.92554440  0.29940592  0.89540698     0.04970
C2370       C  0.89640761  0.31028826  0.91072321    -0.03590
Br2371     Br  0.84091412  0.29472130  0.89583129    -0.03280
H2372       H  0.88740359  0.34626903  0.94701803     0.08880
H2373       H  0.98900364  0.30529495  0.89692710     0.06900
Br2374     Br  0.53841548  0.36834916  0.93960252    -0.03710
C2375       C  0.71466241  0.98497124  0.73643137    -0.10340
C2376       C  0.74798894  0.47625916  0.72620687     0.05850
C2377       C  0.78768385  0.49867256  0.74087215    -0.04110
C2378       C  0.79326402  0.02690953  0.76449943    -0.08560
C2379       C  0.76015467  0.03436388  0.77538035     0.04970
C2380       C  0.72047773  0.01307567  0.76105402    -0.03590
Br2381     Br  0.67260609  0.01714355  0.77715438    -0.03280
H2382       H  0.68336258  0.46780694  0.72658850     0.08880
H2383       H  0.82412237  0.04249560  0.77507718     0.06900
Br2384     Br  0.83704785  0.49257434  0.73225055    -0.03710
C2385       C  0.99007321  0.20738577  0.76432190    -0.10340
C2386       C  0.98320590  0.23982445  0.77926109     0.05850
C2387       C  0.51179060  0.28357777  0.77245128    -0.04110
C2388       C  0.54190214  0.29386650  0.74908683    -0.08560
C2389       C  0.54753721  0.26143655  0.73294024     0.04970
C2390       C  0.52237986  0.21780619  0.74244779    -0.03590
Br2391     Br  0.03118477  0.17063870  0.72716123    -0.03280
H2392       H  0.97000943  0.17353422  0.76943135     0.08880
H2393       H  0.56122264  0.32749161  0.74349229     0.06900
Br2394     Br  0.50923805  0.33000403  0.79503071    -0.03710
C2395       C  0.74835662  0.22556428  0.76434955    -0.10340
C2396       C  0.78828935  0.25297353  0.77715011     0.05850
C2397       C  0.81411750  0.29357735  0.76402726    -0.04110
C2398       C  0.79965678  0.30617208  0.73956371    -0.08560
C2399       C  0.76004590  0.27845559  0.72633401     0.04970
C2400       C  0.73455927  0.23731968  0.73915970    -0.03590
Br2401     Br  0.68010268  0.19530363  0.72378732    -0.03280
H2402       H  0.72859556  0.19354162  0.77307390     0.08880
H2403       H  0.81971347  0.33811416  0.73079584     0.06900
Br2404     Br  0.86937510  0.33386892  0.77911352    -0.03710
C2405       C  0.79824041  0.18909545  0.97288308    -0.10340
C2406       C  0.83099740  0.18654260  0.98831666     0.05850
C2407       C  0.86826437  0.19272593  0.97339681    -0.04110
C2408       C  0.86803346  0.18991497  0.94373626    -0.08560
C2409       C  0.83174280  0.18296153  0.92901960     0.04970
C2410       C  0.79901063  0.18834497  0.94289915    -0.03590
Br2411     Br  0.75609506  0.19521351  0.92250064    -0.03280
H2412       H  0.77121990  0.18996185  0.98388936     0.08880
H2413       H  0.89569625  0.19169690  0.93204381     0.06900
Br2414     Br  0.92035441  0.20530926  0.49043142    -0.03710
C2415       C  0.87567149  0.16095711  0.69540010    -0.10340
C2416       C  0.85504886  0.17922843  0.67996643     0.05850
C2417       C  0.82754016  0.19283421  0.69374419    -0.04110
C2418       C  0.81889405  0.18527910  0.72287139    -0.08560
C2419       C  0.83675614  0.16341564  0.73792789     0.04970
C2420       C  0.86596689  0.15180847  0.72427358    -0.03590
Br2421     Br  0.88941631  0.11913602  0.74265407    -0.03280
H2422       H  0.89617044  0.15010720  0.68445327     0.08880
H2423       H  0.79773667  0.19595215  0.73360464     0.06900
Br2424     Br  0.79929419  0.21904244  0.67316929    -0.03710
C2425       C  0.94179985  0.09566167  0.68022317    -0.10340
C2426       C  0.92045572  0.05228694  0.68949977     0.05850
C2427       C  0.88564706  0.02256444  0.67198116    -0.04110
C2428       C  0.86764129  0.03819980  0.65141787    -0.08560
C2429       C  0.88858174  0.08186650  0.64242409     0.04970
C2430       C  0.92830907  0.10977662  0.65601778    -0.03590
Br2431     Br  0.96599765  0.16805936  0.64362930    -0.03280
H2432       H  0.97094506  0.11821949  0.69059459     0.08880
H2433       H  0.83789686  0.01533862  0.64158851     0.06900
Br2434     Br  0.86523667  0.46024890  0.67153360    -0.03710
C2435       C  0.71264562  0.08851287  0.67081735    -0.10340
C2436       C  0.69561532  0.08561751  0.64316759     0.05850
C2437       C  0.65147810  0.07308270  0.64125033    -0.04110
C2438       C  0.62468126  0.05750973  0.66573943    -0.08560
C2439       C  0.64169743  0.05933305  0.69324566     0.04970
C2440       C  0.68655361  0.07866529  0.69575551    -0.03590
Br2441     Br  0.71437150  0.09992698  0.73208213    -0.03280
H2442       H  0.74691863  0.10199524  0.67332172     0.08880
H2443       H  0.59070864  0.04665021  0.66359981     0.06900
Br2444     Br  0.62659147  0.08072766  0.60703624    -0.03710
C2445       C  0.92595981  0.28985361  0.67216000    -0.10340
C2446       C  0.91294560  0.29963059  0.64596745     0.05850
C2447       C  0.91751326  0.34208444  0.64376625    -0.04110
C2448       C  0.93172521  0.37197554  0.66763991    -0.08560
C2449       C  0.94726404  0.36334534  0.69313758     0.04970
C2450       C  0.94244099  0.32089642  0.69538340    -0.03710
Br2451     Br  0.95116235  0.30154456  0.73111045    -0.03280
H2452       H  0.92333779  0.25783878  0.67478641     0.08880
H2453       H  0.93247046  0.40311101  0.66552914     0.06900
Br2454     Br  0.91245535  0.36370560  0.60725016    -0.03710
C2455       C  0.72678481  0.01581650  0.51166805    -0.10340
C2456       C  0.76877318  0.04687255  0.51926952     0.05850
C2457       C  0.80169910  0.04908754  0.49985372    -0.04110
C2458       C  0.79270723  0.51897612  0.97594878    -0.08560
C2459       C  0.75040713  0.48842717  0.96893466     0.04970
C2460       C  0.71756594  0.48869847  0.98656542    -0.03590
Br2461     Br  0.65907564  0.45468921  0.97576544    -0.03280
H2462       H  0.70014282  0.01429665  0.52395269     0.08880
H2463       H  0.81868690  0.52081436  0.96208070     0.06900
Br2464     Br  0.85835805  0.09609773  0.50186285    -0.03710
C2465       C  0.00254520  0.29749360  0.52527374    -0.10340
C2466       C  0.98546742  0.25711856  0.53877625     0.05850
C2467       C  0.00094981  0.22751402  0.52955586    -0.04110
C2468       C  0.52696951  0.23608970  0.00460423    -0.08560
C2469       C  0.54205853  0.27541980  0.98971414     0.04970
C2470       C  0.53367883  0.30813816  0.00318892    -0.03590
Br2471     Br  0.57373042  0.36847192  0.00232240    -0.03280
H2472       H  0.99344717  0.32180035  0.53314785     0.08880
H2473       H  0.53613710  0.21176504  0.99709611     0.06900
Br2474     Br  0.98648176  0.17376941  0.54868123    -0.03710
C2475       C  0.71313995  0.23994982  0.49597208    -0.10340
C2476       C  0.73889905  0.27800519  0.98056665     0.05850
C2477       C  0.78169589  0.30389764  0.99028917    -0.04110
C2478       C  0.79685282  0.29191444  0.51457252    -0.08560
C2479       C  0.77068358  0.25440023  0.53031542     0.04970
C2480       C  0.72813463  0.22818400  0.52044372    -0.03590
Br2481     Br  0.68925980  0.17382609  0.53769907    -0.03280
H2482       H  0.68086039  0.21872759  0.48875308     0.08880
H2483       H  0.82983939  0.31207692  0.52102936     0.06900
Br2484     Br  0.82206871  0.35651451  0.97203878    -0.03710
O2485       O  0.83004943  0.74846876  0.04969518    -0.81330
O2486       O  0.81637146  0.63977557  0.14065872    -0.81350
O2487       O  0.72771237  0.63220644  0.10318200    -0.81360
O2488       O  0.90207993  0.73223489  0.12041059    -0.81300
O2489       O  0.75033636  0.58379145  0.11199359    -0.81420
O2490       O  0.87127032  0.76579641  0.10217537    -0.81340
O2491       O  0.88245161  0.69092531  0.13205408    -0.81330
O2492       O  0.76742090  0.71139278  0.07158354    -0.81360
C2493       C  0.79065234  0.73942034  0.05293766     1.08360
C2494       C  0.85112842  0.67000054  0.14962388     1.08250
C2495       C  0.72570782  0.60098806  0.11792042     1.08390
C2496       C  0.89536963  0.76556054  0.12159631     1.08260
O2497       O  0.91991486  0.75827826  0.05388141    -0.81330
O2498       O  0.81010297  0.59269410  0.06057501    -0.81400
O2499       O  0.78671313  0.66666702  0.02825555    -0.81340
O2500       O  0.88771426  0.63629495  0.10991982    -0.81320
O2501       O  0.82718258  0.57480849  0.11599737    -0.81370
O2502       O  0.85338857  0.68241316  0.03604785    -0.81340
O2503       O  0.93664759  0.71146589  0.07515216    -0.81300
O2504       O  0.74801719  0.58896115  0.05402525    -0.81370
Co2505     Co  0.86152016  0.72128388  0.07018973     1.51530
Co2506     Co  0.81311759  0.61767508  0.10142905     1.51690
Co2507     Co  0.75997686  0.65072393  0.06604360     1.51570
Co2508     Co  0.87656391  0.68304267  0.08824875     1.51470
O2509       O  0.81374958  0.67068866  0.09037196    -1.43260
C2510       C  0.94661434  0.74301364  0.05767861     1.08290
C2511       C  0.77629078  0.57790439  0.04569670     1.08380
C2512       C  0.82379436  0.67699781  0.51897790     1.08320
C2513       C  0.86717145  0.59752301  0.12086149     1.08290
O2514       O  0.79288316  0.65418017  0.27810968    -0.81330
O2515       O  0.90276835  0.66454368  0.37703424    -0.81350
O2516       O  0.92481402  0.75179119  0.29814017    -0.81360
O2517       O  0.80000583  0.56846943  0.31790130    -0.81300
O2518       O  0.92746540  0.69694676  0.31701988    -0.81420
O2519       O  0.74679669  0.58229436  0.30928975    -0.81340
O2520       O  0.87117205  0.60597957  0.35137221    -0.81330
O2521       O  0.86071078  0.66937056  0.28466449    -0.81360
C2522       C  0.82899423  0.65948611  0.26853898     1.08360
C2523       C  0.89609193  0.62607538  0.37200840     1.08250
C2524       C  0.94440885  0.72924317  0.29928476     1.08390
C2525       C  0.76911498  0.56321321  0.30214096     1.08260
O2526       O  0.74083355  0.63750289  0.35761836    -0.81330
O2527       O  0.93306776  0.74568571  0.36716492    -0.81400
O2528       O  0.84234171  0.73768979  0.29490987    -0.81340
O2529       O  0.82325396  0.62956503  0.39436034    -0.81320
O2530       O  0.84567239  0.69801652  0.38164633    -0.81370
O2531       O  0.78261369  0.71028363  0.31976549    -0.81340
O2532       O  0.75013398  0.58028429  0.36550120    -0.81300
O2533       O  0.88449300  0.75969295  0.35084847    -0.81370
Co2534     Co  0.76904020  0.64705679  0.31788598     1.51530
Co2535     Co  0.88433510  0.69694567  0.35041747     1.51690
Co2536     Co  0.87195456  0.71121698  0.31712639     1.51570
Co2537     Co  0.81237004  0.59926541  0.35571831     1.51470
O2538       O  0.82559274  0.65587266  0.33520156    -1.43260
C2539       C  0.73240607  0.60395860  0.37241766     1.08290
C2540       C  0.91517138  0.76939858  0.36911030     1.08380
C2541       C  0.80571702  0.73475438  0.29952427     1.08320
C2542       C  0.83017900  0.66863474  0.39983616     1.08290
O2543       O  0.75090425  0.83594988  0.20549188    -0.81330
O2544       O  0.63865281  0.81527933  0.11249824    -0.81350
O2545       O  0.63841088  0.73085639  0.15010466    -0.81360
O2546       O  0.74860393  0.93074174  0.13320857    -0.81300
O2547       O  0.58860304  0.75162954  0.14171225    -0.81420
O2548       O  0.76793750  0.88425473  0.15037657    -0.81340
O2549       O  0.70677175  0.84765956  0.11576656    -0.81330
O2550       O  0.71599666  0.77091924  0.18424847    -0.81360
C2551       C  0.74326176  0.79610243  0.20298533     1.08360
C2552       C  0.67465093  0.83005056  0.10040085     1.08250
C2553       C  0.60636309  0.72708514  0.13563643     1.08390
C2554       C  0.77522681  0.91542287  0.13246189     1.08260
O2555       O  0.76380267  0.92184309  0.20370164    -0.81330
O2556       O  0.59407987  0.80979382  0.19446309    -0.81400
O2557       O  0.67096438  0.79097455  0.22716094    -0.81340
O2558       O  0.65344890  0.88974753  0.13284087    -0.81320
O2559       O  0.58485937  0.83683177  0.13787186    -0.81370
O2560       O  0.68451689  0.85799893  0.21834685    -0.81340
O2561       O  0.70694566  0.92215525  0.18680323    -0.81300
O2562       O  0.59465844  0.74753779  0.19896581    -0.81370
Co2563     Co  0.72381556  0.86783929  0.18531078     1.51530
Co2564     Co  0.62096529  0.81627956  0.15394448     1.51690
Co2565     Co  0.65630121  0.76264354  0.18850057     1.51570
Co2566     Co  0.70329782  0.87994236  0.15101148     1.51470
O2567       O  0.67251744  0.81872300  0.16754097    -1.43260
C2568       C  0.74001453  0.94003601  0.20391018     1.08290
C2569       C  0.58047944  0.77378883  0.20768108     1.08380
C2570       C  0.67425554  0.82751973  0.23548670     1.08320
C2571       C  0.61215998  0.87394746  0.12785541     1.08290
O2572       O  0.74265474  0.82535664  0.44221320    -0.81330
O2573       O  0.63892718  0.83795479  0.36481879    -0.81350
O2574       O  0.61900853  0.74355162  0.40625449    -0.81360
O2575       O  0.74258587  0.90938118  0.38303416    -0.81300
O2576       O  0.58190901  0.77201543  0.38725405    -0.81420
O2577       O  0.78985706  0.90201762  0.41061178    -0.81340
O2578       O  0.70450132  0.89295797  0.37082125    -0.81330
O2579       O  0.67772889  0.77399172  0.45583858    -0.81360
C2580       C  0.71875287  0.79242883  0.45750701     1.08360
C2581       C  0.67513826  0.86337080  0.35479289     1.08250
C2582       C  0.59406356  0.74286405  0.38632057     1.08390
C2583       C  0.78076895  0.91209631  0.38621645     1.08260
O2584       O  0.74196514  0.91927558  0.44792007    -0.81330
O2585       O  0.58124679  0.81317019  0.44487749    -0.81400
O2586       O  0.65415029  0.83995133  0.46602796    -0.81340
O2587       O  0.64748684  0.90980426  0.38853412    -0.81320
O2588       O  0.58031527  0.85431779  0.38815903    -0.81370
O2589       O  0.72465664  0.87729952  0.46260059    -0.81340
O2590       O  0.72077712  0.95771589  0.42179087    -0.81300
O2591       O  0.59014817  0.75802499  0.46207899    -0.81370
Co2592     Co  0.73027559  0.86582655  0.41880631     1.51530
Co2593     Co  0.61560911  0.83180405  0.40385071     1.51690
Co2594     Co  0.63658344  0.79141862  0.43770054     1.51570
Co2595     Co  0.69002528  0.89556123  0.41260947     1.51470
O2596       O  0.66858309  0.83098114  0.41195465    -1.43260
C2597       C  0.73947916  0.95519871  0.44432832     1.08290
C2598       C  0.57153577  0.78203509  0.46381350     1.08380
C2599       C  0.68991451  0.85928693  0.97811107     1.08320
C2600       C  0.60772731  0.89243578  0.37990412     1.08290
O2601       O  0.94515788  0.89922747  0.48712304    -0.81330
O2602       O  0.50594252  0.47958111  0.05000329    -0.81350
O2603       O  0.54555718  0.94868602  0.01775941    -0.81360
O2604       O  0.91395490  0.00568691  0.02267130    -0.81300
O2605       O  0.59245954  0.00823068  0.03863965    -0.81420
O2606       O  0.90518414  0.93932363  0.01965344    -0.81340
O2607       O  0.98270979  0.52880761  0.05591176    -0.81330
O2608       O  0.00522663  0.92390009  0.46283988    -0.81360
C2609       C  0.96847420  0.89265222  0.46823497     1.08360
C2610       C  0.48842991  0.49800212  0.06524593     1.08250
C2611       C  0.57469360  0.96710715  0.03746193     1.08390
C2612       C  0.89677676  0.96726211  0.03257869     1.08260
O2613       O  0.91599589  0.49507569  0.46697627    -0.81330
O2614       O  0.59073504  0.54893748  0.48681271    -0.81400
O2615       O  0.52659238  0.00792233  0.44874635    -0.81340
O2616       O  0.53762914  0.59415986  0.01671252    -0.81320
O2617       O  0.56398303  0.56499586  0.04463967    -0.81370
O2618       O  0.95929357  0.95638824  0.44162634    -0.81340
O2619       O  0.97156144  0.55914524  0.97681427    -0.81300
O2620       O  0.59035264  0.49124015  0.46588036    -0.81370
Co2621     Co  0.93447193  0.94998783  0.48081069     1.51530
Co2622     Co  0.54635221  0.51148373  0.01914900     1.51690
Co2623     Co  0.53620063  0.98229615  0.48306991     1.51570
Co2624     Co  0.97776591  0.54452487  0.01639143     1.51470
O2625       O  0.49063802  0.49649715  0.99960716    -1.43260
C2626       C  0.93918562  0.53588393  0.46145063     1.08290
C2627       C  0.60756478  0.53274686  0.46782707     1.08380
C2628       C  0.49477987  0.98574148  0.43254277     1.08320
C2629       C  0.55869910  0.59734704  0.03924764     1.08290
O2630       O  0.94951966  0.92043316  0.22614458    -0.81330
O2631       O  0.54647189  0.55610133  0.30928712    -0.81350
O2632       O  0.53125078  0.95842567  0.27402011    -0.81360
O2633       O  0.91610168  0.01061430  0.28540453    -0.81300
O2634       O  0.59065105  0.01846128  0.28199490    -0.81420
O2635       O  0.90109561  0.94654256  0.26365844    -0.81340
O2636       O  0.98389106  0.50216344  0.29694336    -0.81330
O2637       O  0.01058601  0.91728427  0.21917107    -0.81360
C2638       C  0.97005306  0.90045359  0.21521827     1.08360
C2639       C  0.51047534  0.52544652  0.31588665     1.08250
C2640       C  0.56553851  0.97908617  0.28815547     1.08390
C2641       C  0.89256786  0.96847681  0.28369339     1.08260
O2642       O  0.93401077  0.49907809  0.21535607    -0.81330
O2643       O  0.60815591  0.57534695  0.23400656    -0.81400
O2644       O  0.52324032  0.99144893  0.19561072    -0.81340
O2645       O  0.50223662  0.59040357  0.28802775    -0.81320
O2646       O  0.56544560  0.61639831  0.26632210    -0.81370
O2647       O  0.95610906  0.97688292  0.20329780    -0.81340
O2648       O  0.96016233  0.56333918  0.23476527    -0.81300
O2649       O  0.58931371  0.50490734  0.22388066    -0.81370
Co2650     Co  0.96067532  0.97936631  0.24773258     1.51530
Co2651     Co  0.57501178  0.56487027  0.27102008     1.51690
Co2652     Co  0.52605127  0.97632622  0.23417035     1.51570
Co2653     Co  0.97320022  0.53167907  0.26579659     1.51470
O2654       O  0.52262209  0.52904436  0.24526054    -1.43260
C2655       C  0.93849454  0.53799205  0.21432841     1.08290
C2656       C  0.61218577  0.54584378  0.21878623     1.08380
C2657       C  0.98811957  0.98451567  0.18596063     1.08320
C2658       C  0.54065947  0.62130325  0.28500131     1.08290
C2659       C  0.98847316  0.97251915  0.35239046    -0.10340
C2660       C  0.50102136  0.51524477  0.34559215     0.05850
C2661       C  0.50914879  0.54731287  0.36753788    -0.04110
C2662       C  0.50914595  0.53736599  0.39597448    -0.08560
C2663       C  0.49815510  0.99492744  0.40266695     0.04970
C2664       C  0.98661801  0.96210421  0.38083661    -0.03590
Br2665     Br  0.97174014  0.90364086  0.38668481    -0.03280
H2666       H  0.98212066  0.94763295  0.33543000     0.08880
H2667       H  0.51521306  0.56206801  0.41301211     0.06900
Br2668     Br  0.51088240  0.60123777  0.36199442    -0.03710
C2669       C  0.49916528  0.46425577  0.10723281    -0.10340
C2670       C  0.48102520  0.48849507  0.09558904     0.05850
C2671       C  0.96483859  0.51064022  0.11410309    -0.04110
C2672       C  0.96781872  0.00853653  0.14350297    -0.08560
C2673       C  0.98496794  0.98414009  0.15504233     0.04970
C2674       C  0.50269507  0.46317288  0.13680675    -0.03590
Br2675     Br  0.53497760  0.43559033  0.15020014    -0.03280
H2676       H  0.51328571  0.44842832  0.09344626     0.08880
H2677       H  0.96095482  0.02951603  0.15723074     0.06900
Br2678     Br  0.94411380  0.54960274  0.10197979    -0.03710
C2679       C  0.59888430  0.90353888  0.32708379    -0.10340
C2680       C  0.59622196  0.91435899  0.35661803     0.05850
C2681       C  0.58560484  0.94795617  0.36298833    -0.04110
C2682       C  0.57668801  0.96922857  0.34072841    -0.08560
C2683       C  0.57723047  0.95714439  0.31133166     0.04970
C2684       C  0.59032363  0.92509511  0.30464239    -0.03590
Br2685     Br  0.59916462  0.91183021  0.26498791    -0.03280
H2686       H  0.60790208  0.87836659  0.32135252     0.08880
H2687       H  0.56929523  0.99537034  0.34648635     0.06900
Br2688     Br  0.58240114  0.96455306  0.40211692    -0.03710
C2689       C  0.60802450  0.69568638  0.34827159    -0.10340
C2690       C  0.58064622  0.71133404  0.36040573     0.05850
C2691       C  0.54292160  0.70148787  0.34487627    -0.04110
C2692       C  0.53207496  0.67512975  0.31927750    -0.08560
C2693       C  0.55829709  0.65780513  0.30776731     0.04970
C2694       C  0.59752692  0.66973387  0.32226665    -0.03590
Br2695     Br  0.63926283  0.65361606  0.30681640    -0.03280
H2696       H  0.63826033  0.70451999  0.35862466     0.08880
H2697       H  0.50105470  0.66491814  0.30987719     0.06900
Br2698     Br  0.50140217  0.71758469  0.35990587    -0.03710
C2699       C  0.79312588  0.91902338  0.33215810    -0.10340
C2700       C  0.81028399  0.92201943  0.35990744     0.05850
C2701       C  0.85301369  0.92903943  0.36046612    -0.04110
C2702       C  0.87877251  0.94208294  0.33500599    -0.08560
C2703       C  0.86222431  0.94545960  0.30821245     0.04970
C2704       C  0.81777129  0.92756984  0.30654420    -0.03590
Br2705     Br  0.78877980  0.90362287  0.27084431    -0.03280
H2706       H  0.75971333  0.90722649  0.33010322     0.08880
H2707       H  0.91210260  0.95075682  0.33625582     0.06900
Br2708     Br  0.87704928  0.91916587  0.39437193    -0.03710
C2709       C  0.68535991  0.87998207  0.27589860    -0.10340
C2710       C  0.67061668  0.83642553  0.26596953     0.05850
C2711       C  0.65764984  0.80283295  0.28575349    -0.04110
C2712       C  0.66434549  0.81339580  0.31481755    -0.08560
C2713       C  0.68043064  0.85687091  0.32460308     0.04970
C2714       C  0.68985520  0.89029294  0.30531206    -0.03590
Br2715     Br  0.70837806  0.94952283  0.31864148    -0.03280
H2716       H  0.69436427  0.90609273  0.26092007     0.08880
H2717       H  0.65440599  0.78729281  0.33009610     0.06900
Br2718     Br  0.62722339  0.74228124  0.27477306    -0.03710
C2719       C  0.72025587  0.85922048  0.05637043    -0.10340
C2720       C  0.67916403  0.83457680  0.06879124     0.05850
C2721       C  0.64307638  0.82349950  0.05168251    -0.04110
C2722       C  0.64846553  0.83412603  0.02295517    -0.08560
C2723       C  0.68896832  0.85795875  0.01009257     0.04970
C2724       C  0.72527582  0.87228216  0.02752184    -0.03590
Br2725     Br  0.78108489  0.91291372  0.51428297    -0.03280
H2726       H  0.74848684  0.87041483  0.06947347     0.08880
H2727       H  0.61987049  0.82274567  0.01054699     0.06900
Br2728     Br  0.58490726  0.79666462  0.06547274    -0.03710
C2729       C  0.55168206  0.90118218  0.06954259    -0.10340
C2730       C  0.58347422  0.94248144  0.06070261     0.05850
C2731       C  0.62153906  0.96189191  0.07713828    -0.04110
C2732       C  0.62915340  0.93955568  0.09898078    -0.08560
C2733       C  0.59858987  0.89771851  0.10701817     0.04970
C2734       C  0.55841470  0.87929946  0.09270206    -0.03590
Br2735     Br  0.51051760  0.82613818  0.10472946    -0.03280
H2736       H  0.52065730  0.88684233  0.05933943     0.08880
H2737       H  0.65962657  0.95566600  0.11003879     0.06900
Br2738     Br  0.66467966  0.51993989  0.07272600    -0.03710
C2739       C  0.60050243  0.70758496  0.08197537    -0.10340
C2740       C  0.59045946  0.69401425  0.11086083     0.05850
C2741       C  0.56930972  0.64876024  0.11551444    -0.04110
C2742       C  0.55868426  0.61863693  0.09187039    -0.08560
C2743       C  0.56851427  0.63205608  0.06287479     0.04970
C2744       C  0.58881811  0.67733596  0.05816849    -0.03590
Br2745     Br  0.60342303  0.69942929  0.01992824    -0.03280
H2746       H  0.61921355  0.74187147  0.07792019     0.08880
H2747       H  0.54323818  0.58416051  0.09635695     0.06900
Br2748     Br  0.55562568  0.62642463  0.15391939    -0.03710
C2749       C  0.81882464  0.96689881  0.09337694    -0.10340
C2750       C  0.80847604  0.92847655  0.10822027     0.05850
C2751       C  0.82607807  0.90158627  0.09692264    -0.04110
C2752       C  0.85436548  0.91459134  0.07259495    -0.08560
C2753       C  0.86637403  0.95448864  0.05869528     0.04970
C2754       C  0.84801350  0.98056130  0.07000119    -0.03590
Br2755     Br  0.86034350  0.03544318  0.05484254    -0.03280
H2756       H  0.80370441  0.98680853  0.09983591     0.08880
H2757       H  0.86642378  0.89280527  0.06418035     0.06900
Br2758     Br  0.80769835  0.84390810  0.11090772    -0.03710
C2759       C  0.91285365  0.53840269  0.41066350    -0.10340
C2760       C  0.92832602  0.55859410  0.43799350     0.05850
C2761       C  0.93813597  0.60317293  0.44138683    -0.04110
C2762       C  0.92899481  0.62473413  0.41959058    -0.08560
C2763       C  0.91095973  0.60369784  0.39307031     0.04970
C2764       C  0.90533051  0.56093908  0.38830844    -0.03590
Br2765     Br  0.89410785  0.53601955  0.35008627    -0.03280
H2766       H  0.90913735  0.50617668  0.40610695     0.08880
H2767       H  0.93655841  0.65853315  0.42349533     0.06900
Br2768     Br  0.96502207  0.63750887  0.47516615    -0.03710
C2769       C  0.71399536  0.58834600  0.42589538    -0.10340
C2770       C  0.70079271  0.59072644  0.39763159     0.05850
C2771       C  0.65742625  0.58014467  0.39424478    -0.04110
C2772       C  0.62812923  0.56498092  0.41782270    -0.08560
C2773       C  0.64088733  0.56000555  0.44555358     0.04970
C2774       C  0.68497136  0.57582357  0.44972788    -0.03590
Br2775     Br  0.70671445  0.58833622  0.48812285    -0.03280
H2776       H  0.74738494  0.59815320  0.42975051     0.08880
H2777       H  0.59467589  0.55478835  0.41397481     0.06900
Br2778     Br  0.63589669  0.58154753  0.35706748    -0.03710
C2779       C  0.90901948  0.83598082  0.43687903    -0.10340
C2780       C  0.95106158  0.85330288  0.44765410     0.05850
C2781       C  0.97901616  0.84083197  0.43252782    -0.04110
C2782       C  0.96586257  0.81317747  0.40787034    -0.08560
C2783       C  0.92554440  0.79940589  0.39540693     0.04970
C2784       C  0.89640759  0.81028820  0.41072317    -0.03590
Br2785     Br  0.84091411  0.79472124  0.39583124    -0.03280
H2786       H  0.88740354  0.84626893  0.44701799     0.08880
H2787       H  0.98900365  0.80529495  0.39692704     0.06900
Br2788     Br  0.53841546  0.86834912  0.43960250    -0.03710
C2789       C  0.71466242  0.48497128  0.23643139    -0.10340
C2790       C  0.74798898  0.97625922  0.22620687     0.05850
C2791       C  0.78768388  0.99867263  0.24087215    -0.04110
C2792       C  0.79326403  0.52690960  0.26449945    -0.08560
C2793       C  0.76015465  0.53436389  0.27538039     0.04970
C2794       C  0.72047773  0.51307568  0.26105405    -0.03590
Br2795     Br  0.67260607  0.51714352  0.27715442    -0.03280
H2796       H  0.68336260  0.96780696  0.22658851     0.08880
H2797       H  0.82412238  0.54249569  0.27507720     0.06900
Br2798     Br  0.83704789  0.99257443  0.23225056    -0.03710
C2799       C  0.99007324  0.70738575  0.26432188    -0.10340
C2800       C  0.98320589  0.73982441  0.27926106     0.05850
C2801       C  0.51179057  0.78357774  0.27245126    -0.04110
C2802       C  0.54190211  0.79386649  0.24908681    -0.08560
C2803       C  0.54753723  0.76143657  0.23294023     0.04970
C2804       C  0.52237990  0.71780620  0.24244777    -0.03590
Br2805     Br  0.03118488  0.67063874  0.22716121    -0.03280
H2806       H  0.97000950  0.67353420  0.26943133     0.08880
H2807       H  0.56122259  0.82749161  0.24349227     0.06900
Br2808     Br  0.50923801  0.83000398  0.29503070    -0.03710
C2809       C  0.74835663  0.72556429  0.26434952    -0.10340
C2810       C  0.78828935  0.75297352  0.27715008     0.05850
C2811       C  0.81411752  0.79357735  0.26402725    -0.04110
C2812       C  0.79965681  0.80617211  0.23956371    -0.08560
C2813       C  0.76004593  0.77845564  0.22633400     0.04970
C2814       C  0.73455929  0.73731972  0.23915968    -0.03590
Br2815     Br  0.68010269  0.69530370  0.22378727    -0.03280
H2816       H  0.72859555  0.69354163  0.27307386     0.08880
H2817       H  0.81971351  0.83811420  0.23079586     0.06900
Br2818     Br  0.86937512  0.83386889  0.27911352    -0.03710
C2819       C  0.79824034  0.68909541  0.47288308    -0.10340
C2820       C  0.83099733  0.68654257  0.48831666     0.05850
C2821       C  0.86826433  0.69272597  0.47339681    -0.04110
C2822       C  0.86803346  0.68991510  0.44373626    -0.08560
C2823       C  0.83174279  0.68296163  0.42901959     0.04970
C2824       C  0.79901057  0.68834499  0.44289915    -0.03590
Br2825     Br  0.75609500  0.69521352  0.42250064    -0.03280
H2826       H  0.77121981  0.68996177  0.48388936     0.08880
H2827       H  0.89569627  0.69169710  0.43204380     0.06900
Br2828     Br  0.92035446  0.70530924  0.99043143    -0.03710
C2829       C  0.87567156  0.66095723  0.19540011    -0.10340
C2830       C  0.85504888  0.67922849  0.17996645     0.05850
C2831       C  0.82754009  0.69283415  0.19374420    -0.04110
C2832       C  0.81889395  0.68527898  0.22287139    -0.08560
C2833       C  0.83675609  0.66341557  0.23792789     0.04970
C2834       C  0.86596692  0.65180850  0.22427358    -0.03590
Br2835     Br  0.88941638  0.61913608  0.24265405    -0.03280
H2836       H  0.89617059  0.65010741  0.18445329     0.08880
H2837       H  0.79773650  0.69595195  0.23360463     0.06900
Br2838     Br  0.79929403  0.71904229  0.17316930    -0.03710
C2839       C  0.94179989  0.59566173  0.18022320    -0.10340
C2840       C  0.92045575  0.55228699  0.18949979     0.05850
C2841       C  0.88564710  0.52256450  0.17198118    -0.04110
C2842       C  0.86764133  0.53819987  0.15141789    -0.08560
C2843       C  0.88858179  0.58186656  0.14242411     0.04970
C2844       C  0.92830911  0.60977668  0.15601780    -0.03590
Br2845     Br  0.96599771  0.66805941  0.14362931    -0.03280
H2846       H  0.97094510  0.61821954  0.19059462     0.08880
H2847       H  0.83789690  0.51533869  0.14158854     0.06900
Br2848     Br  0.86523669  0.96024896  0.17153362    -0.03710
C2849       C  0.71264564  0.58851287  0.17081736    -0.10340
C2850       C  0.69561536  0.58561756  0.14316760     0.05850
C2851       C  0.65147814  0.57308278  0.14125034    -0.04110
C2852       C  0.62468129  0.55750979  0.16573944    -0.08560
C2853       C  0.64169745  0.55933306  0.19324566     0.04970
C2854       C  0.68655362  0.57866529  0.19575552    -0.03590
Br2855     Br  0.71437149  0.59992694  0.23208214    -0.03280
H2856       H  0.74691865  0.60199522  0.17332174     0.08880
H2857       H  0.59070868  0.54665029  0.16359981     0.06900
Br2858     Br  0.62659153  0.58072779  0.10703626    -0.03710
C2859       C  0.92595981  0.78985366  0.17216001    -0.10340
C2860       C  0.91294563  0.79963064  0.14596745     0.05850
C2861       C  0.91751331  0.84208450  0.14376624    -0.04110
C2862       C  0.93172525  0.87197560  0.16763990    -0.08560
C2863       C  0.94726406  0.86334539  0.19313758     0.04970
C2864       C  0.94244098  0.82089647  0.19538341    -0.03710
Br2865     Br  0.95116233  0.80154461  0.23111046    -0.03280
H2866       H  0.92333779  0.75783883  0.17478642     0.08880
H2867       H  0.93247052  0.90311108  0.16552912     0.06900
Br2868     Br  0.91245545  0.86370566  0.10725014    -0.03710
C2869       C  0.72678489  0.51581653  0.01166807    -0.10340
C2870       C  0.76877326  0.54687259  0.01926953     0.05850
C2871       C  0.80169917  0.54908758  0.99985372    -0.04110
C2872       C  0.79270717  0.01897609  0.47594878    -0.08560
C2873       C  0.75040708  0.98842713  0.46893465     0.04970
C2874       C  0.71756588  0.98869843  0.48656541    -0.03590
Br2875     Br  0.65907558  0.95468916  0.47576541    -0.03280
H2876       H  0.70014290  0.51429667  0.02395273     0.08880
H2877       H  0.81868685  0.02081433  0.46208070     0.06900
Br2878     Br  0.85835814  0.59609775  0.00186285    -0.03710
C2879       C  0.00254524  0.79749365  0.02527374    -0.10340
C2880       C  0.98546746  0.75711862  0.03877625     0.05850
C2881       C  0.00094987  0.72751409  0.02955588    -0.04110
C2882       C  0.52696944  0.73608964  0.50460420    -0.08560
C2883       C  0.54205847  0.77541976  0.48971412     0.04970
C2884       C  0.53367878  0.80813811  0.50318891    -0.03590
Br2885     Br  0.57373036  0.86847188  0.50232239    -0.03280
H2886       H  0.99344719  0.82180040  0.03314784     0.08880
H2887       H  0.53613700  0.71176497  0.49709608     0.06900
Br2888     Br  0.98648181  0.67376946  0.04868124    -0.03710
C2889       C  0.71314001  0.73994983  0.99597206    -0.10340
C2890       C  0.73889899  0.77800516  0.48056665     0.05850
C2891       C  0.78169585  0.80389757  0.49028915    -0.04110
C2892       C  0.79685285  0.79191449  0.01457253    -0.08560
C2893       C  0.77068362  0.75440026  0.03031542     0.04970
C2894       C  0.72813469  0.72818401  0.02044371    -0.03590
Br2895     Br  0.68925988  0.67382607  0.03769902    -0.03280
H2896       H  0.68086047  0.71872758  0.98875304     0.08880
H2897       H  0.82983942  0.81207699  0.02102939     0.06900
Br2898     Br  0.82206868  0.85651440  0.47203872    -0.03710
O2899       O  0.83004940  0.74846873  0.54969517    -0.81330
O2900       O  0.81637144  0.63977551  0.64065871    -0.81350
O2901       O  0.72771234  0.63220640  0.60318199    -0.81360
O2902       O  0.90207989  0.73223486  0.62041059    -0.81300
O2903       O  0.75033634  0.58379140  0.61199357    -0.81420
O2904       O  0.87127027  0.76579638  0.60217538    -0.81340
O2905       O  0.88245158  0.69092528  0.63205407    -0.81330
O2906       O  0.76742088  0.71139275  0.57158353    -0.81360
C2907       C  0.79065231  0.73942030  0.55293765     1.08360
C2908       C  0.85112840  0.67000049  0.64962387     1.08250
C2909       C  0.72570780  0.60098801  0.61792040     1.08390
C2910       C  0.89536959  0.76556051  0.62159631     1.08260
O2911       O  0.91991482  0.75827824  0.55388141    -0.81330
O2912       O  0.81010294  0.59269407  0.56057498    -0.81400
O2913       O  0.78671312  0.66666699  0.52825554    -0.81340
O2914       O  0.88771425  0.63629493  0.60991981    -0.81320
O2915       O  0.82718257  0.57480845  0.61599735    -0.81370
O2916       O  0.85338855  0.68241312  0.53604786    -0.81340
O2917       O  0.93664756  0.71146588  0.57515215    -0.81300
O2918       O  0.74801716  0.58896112  0.55402524    -0.81370
Co2919     Co  0.86152012  0.72128385  0.57018973     1.51530
Co2920     Co  0.81311757  0.61767503  0.60142903     1.51690
Co2921     Co  0.75997684  0.65072390  0.56604359     1.51570
Co2922     Co  0.87656389  0.68304264  0.58824875     1.51470
O2923       O  0.81374955  0.67068862  0.59037195    -1.43260
C2924       C  0.94661430  0.74301363  0.55767861     1.08290
C2925       C  0.77629075  0.57790437  0.54569668     1.08380
C2926       C  0.82379438  0.67699784  0.01897790     1.08320
C2927       C  0.86717145  0.59752297  0.62086148     1.08290
O2928       O  0.79288317  0.65418019  0.77810967    -0.81330
O2929       O  0.90276832  0.66454370  0.87703425    -0.81350
O2930       O  0.92481401  0.75179125  0.79814021    -0.81360
O2931       O  0.80000586  0.56846946  0.81790127    -0.81300
O2932       O  0.92746539  0.69694680  0.81701991    -0.81420
O2933       O  0.74679671  0.58229435  0.80928971    -0.81340
O2934       O  0.87117206  0.60597960  0.85137220    -0.81330
O2935       O  0.86071080  0.66937062  0.78466449    -0.81360
C2936       C  0.82899425  0.65948616  0.76853898     1.08360
C2937       C  0.89609193  0.62607541  0.87200840     1.08250
C2938       C  0.94440883  0.72924322  0.79928479     1.08390
C2939       C  0.76911501  0.56321322  0.80214093     1.08260
O2940       O  0.74083353  0.63750285  0.85761834    -0.81330
O2941       O  0.93306771  0.74568573  0.86716496    -0.81400
O2942       O  0.84234170  0.73768982  0.79490989    -0.81340
O2943       O  0.82325393  0.62956502  0.89436033    -0.81320
O2944       O  0.84567233  0.69801651  0.88164634    -0.81370
O2945       O  0.78261366  0.71028362  0.81976549    -0.81340
O2946       O  0.75013397  0.58028427  0.86550117    -0.81300
O2947       O  0.88449296  0.75969297  0.85084850    -0.81370
Co2948     Co  0.76904019  0.64705678  0.81788596     1.51530
Co2949     Co  0.88433506  0.69694569  0.85041749     1.51690
Co2950     Co  0.87195455  0.71121701  0.81712641     1.51570
Co2951     Co  0.81237004  0.59926542  0.85571829     1.51470
O2952       O  0.82559272  0.65587267  0.83520156    -1.43260
C2953       C  0.73240606  0.60395858  0.87241763     1.08290
C2954       C  0.91517133  0.76939860  0.86911034     1.08380
C2955       C  0.80571699  0.73475438  0.79952427     1.08320
C2956       C  0.83017895  0.66863472  0.89983615     1.08290
O2957       O  0.75090415  0.83594978  0.70549186    -0.81330
O2958       O  0.63865270  0.81527920  0.61249823    -0.81350
O2959       O  0.63841076  0.73085627  0.65010468    -0.81360
O2960       O  0.74860384  0.93074163  0.63320855    -0.81300
O2961       O  0.58860293  0.75162943  0.64171226    -0.81420
O2962       O  0.76793740  0.88425463  0.65037655    -0.81340
O2963       O  0.70677164  0.84765943  0.61576656    -0.81330
O2964       O  0.71599655  0.77091913  0.68424848    -0.81360
C2965       C  0.74326166  0.79610233  0.70298532     1.08360
C2966       C  0.67465083  0.83005042  0.60040085     1.08250
C2967       C  0.60636297  0.72708502  0.63563645     1.08390
C2968       C  0.77522671  0.91542276  0.63246187     1.08260
O2969       O  0.76380258  0.92184299  0.70370162    -0.81330
O2970       O  0.59407980  0.80979376  0.69446309    -0.81400
O2971       O  0.67096430  0.79097448  0.72716094    -0.81340
O2972       O  0.65344881  0.88974741  0.63284086    -0.81320
O2973       O  0.58485927  0.83683166  0.63787185    -0.81370
O2974       O  0.68451680  0.85799885  0.71834684    -0.81340
O2975       O  0.70694558  0.92215516  0.68680322    -0.81300
O2976       O  0.59465834  0.74753773  0.69896582    -0.81370
Co2977     Co  0.72381546  0.86783920  0.68531077     1.51530
Co2978     Co  0.62096520  0.81627946  0.65394448     1.51690
Co2979     Co  0.65630111  0.76264345  0.68850057     1.51570
Co2980     Co  0.70329772  0.87994226  0.65101147     1.51470
O2981       O  0.67251734  0.81872290  0.66754096    -1.43260
C2982       C  0.74001445  0.94003592  0.70391017     1.08290
C2983       C  0.58047937  0.77378878  0.70768109     1.08380
C2984       C  0.67425547  0.82751966  0.73548670     1.08320
C2985       C  0.61215988  0.87394736  0.62785540     1.08290
O2986       O  0.74265479  0.82535668  0.94221321    -0.81330
O2987       O  0.63892721  0.83795480  0.86481878    -0.81350
O2988       O  0.61900857  0.74355163  0.90625447    -0.81360
O2989       O  0.74258591  0.90938118  0.88303416    -0.81300
O2990       O  0.58190904  0.77201542  0.88725404    -0.81420
O2991       O  0.78985709  0.90201763  0.91061179    -0.81340
O2992       O  0.70450135  0.89295798  0.87082125    -0.81330
O2993       O  0.67772893  0.77399173  0.95583857    -0.81360
C2994       C  0.71875292  0.79242886  0.95750702     1.08360
C2995       C  0.67513829  0.86337081  0.85479289     1.08250
C2996       C  0.59406359  0.74286405  0.88632055     1.08390
C2997       C  0.78076897  0.91209629  0.88621645     1.08260
O2998       O  0.74196517  0.91927560  0.94792006    -0.81330
O2999       O  0.58124682  0.81317017  0.94487748    -0.81400
O3000       O  0.65415032  0.83995132  0.96602795    -0.81340
O3001       O  0.64748686  0.90980425  0.88853411    -0.81320
O3002       O  0.58031528  0.85431778  0.88815903    -0.81370
O3003       O  0.72465666  0.87729955  0.96260059    -0.81340
O3004       O  0.72077713  0.95771590  0.92179087    -0.81300
O3005       O  0.59014820  0.75802498  0.96207897    -0.81370
Co3006     Co  0.73027562  0.86582656  0.91880631     1.51530
Co3007     Co  0.61560914  0.83180405  0.90385070     1.51690
Co3008     Co  0.63658347  0.79141862  0.93770053     1.51570
Co3009     Co  0.69002530  0.89556124  0.91260947     1.51470
O3010       O  0.66858312  0.83098115  0.91195464    -1.43260
C3011       C  0.73947918  0.95519873  0.94432831     1.08290
C3012       C  0.57153580  0.78203508  0.96381349     1.08380
C3013       C  0.68991449  0.85928690  0.47811108     1.08320
C3014       C  0.60772732  0.89243577  0.87990412     1.08290
O3015       O  0.94515796  0.89922760  0.98712306    -0.81330
O3016       O  0.50594247  0.47958099  0.55000329    -0.81350
O3017       O  0.54555710  0.94868592  0.51775943    -0.81360
O3018       O  0.91395479  0.00568677  0.52267125    -0.81300
O3019       O  0.59245943  0.00823059  0.53863967    -0.81420
O3020       O  0.90518403  0.93932350  0.51965341    -0.81340
O3021       O  0.98270973  0.52880748  0.55591176    -0.81330
O3022       O  0.00522667  0.92390018  0.96283986    -0.81360
C3023       C  0.96847424  0.89265233  0.96823497     1.08360
C3024       C  0.48842985  0.49800199  0.56524592     1.08250
C3025       C  0.57469350  0.96710706  0.53746195     1.08390
C3026       C  0.89677665  0.96726198  0.53257865     1.08260
O3027       O  0.91599594  0.49507577  0.96697627    -0.81330
O3028       O  0.59073509  0.54893756  0.98681271    -0.81400
O3029       O  0.52659246  0.00792245  0.94874634    -0.81340
O3030       O  0.53762908  0.59415975  0.51671253    -0.81320
O3031       O  0.56398297  0.56499574  0.54463968    -0.81370
O3032       O  0.95929362  0.95638838  0.94162636    -0.81340
O3033       O  0.97156139  0.55914515  0.47681428    -0.81300
O3034       O  0.59035271  0.49124022  0.96588039    -0.81370
Co3035     Co  0.93447201  0.94998796  0.98081072     1.51530
Co3036     Co  0.54635216  0.51148363  0.51914899     1.51690
Co3037     Co  0.53620070  0.98229625  0.98306990     1.51570
Co3038     Co  0.97776585  0.54452477  0.51639143     1.51470
O3039       O  0.49063796  0.49649705  0.49960716    -1.43260
C3040       C  0.93918566  0.53588400  0.96145062     1.08290
C3041       C  0.60756484  0.53274693  0.96782708     1.08380
C3042       C  0.49477993  0.98574161  0.93254278     1.08320
C3043       C  0.55869904  0.59734692  0.53924765     1.08290
O3044       O  0.94951964  0.92043314  0.72614458    -0.81330
O3045       O  0.54647191  0.55610131  0.80928710    -0.81350
O3046       O  0.53125075  0.95842565  0.77402012    -0.81360
O3047       O  0.91610161  0.01061422  0.78540454    -0.81300
O3048       O  0.59065102  0.01846127  0.78199491    -0.81420
O3049       O  0.90109559  0.94654250  0.76365842    -0.81340
O3050       O  0.98389107  0.50216342  0.79694335    -0.81330
O3051       O  0.01058600  0.91728426  0.71917107    -0.81360
C3052       C  0.97005305  0.90045358  0.71521827     1.08360
C3053       C  0.51047536  0.52544650  0.81588663     1.08250
C3054       C  0.56553848  0.97908615  0.78815548     1.08390
C3055       C  0.89256783  0.96847672  0.78369339     1.08260
O3056       O  0.93401077  0.49907804  0.71535606    -0.81330
O3057       O  0.60815591  0.57534692  0.73400654    -0.81400
O3058       O  0.52324029  0.99144892  0.69561072    -0.81340
O3059       O  0.50223663  0.59040354  0.78802773    -0.81320
O3060       O  0.56544560  0.61639828  0.76632208    -0.81370
O3061       O  0.95610904  0.97688290  0.70329780    -0.81340
O3062       O  0.96016234  0.56333914  0.73476524    -0.81300
O3063       O  0.58931372  0.50490730  0.72388065    -0.81370
Co3064     Co  0.96067530  0.97936628  0.74773258     1.51530
Co3065     Co  0.57501180  0.56487025  0.77102006     1.51690
Co3066     Co  0.52605124  0.97632620  0.73417035     1.51570
Co3067     Co  0.97320023  0.53167903  0.76579658     1.51470
O3068       O  0.52262210  0.52904432  0.74526053    -1.43260
C3069       C  0.93849454  0.53799200  0.71432839     1.08290
C3070       C  0.61218577  0.54584374  0.71878621     1.08380
C3071       C  0.98811956  0.98451566  0.68596063     1.08320
C3072       C  0.54065948  0.62130322  0.78500130     1.08290
C3073       C  0.98847317  0.97251918  0.85239047    -0.10340
C3074       C  0.50102140  0.51524477  0.84559214     0.05850
C3075       C  0.50914881  0.54731287  0.86753786    -0.04110
C3076       C  0.50914600  0.53736602  0.89597447    -0.08560
C3077       C  0.49815512  0.99492754  0.90266696     0.04970
C3078       C  0.98661809  0.96210429  0.88083664    -0.03590
Br3079     Br  0.97174035  0.90364098  0.88668486    -0.03280
H3080       H  0.98212074  0.94763298  0.83543004     0.08880
H3081       H  0.51521309  0.56206805  0.91301209     0.06900
Br3082     Br  0.51088236  0.60123774  0.86199438    -0.03710
C3083       C  0.49916523  0.46425566  0.60723280    -0.10340
C3084       C  0.48102515  0.48849495  0.59558903     0.05850
C3085       C  0.96483855  0.51064011  0.61410309    -0.04110
C3086       C  0.96781868  0.00853649  0.64350296    -0.08560
C3087       C  0.98496792  0.98414007  0.65504233     0.04970
C3088       C  0.50269504  0.46317278  0.63680674    -0.03590
Br3089     Br  0.53497758  0.43559023  0.65020013    -0.03280
H3090       H  0.51328566  0.44842819  0.59344625     0.08880
H3091       H  0.96095479  0.02951604  0.65723074     0.06900
Br3092     Br  0.94411377  0.54960264  0.60197979    -0.03710
C3093       C  0.59888430  0.90353887  0.82708378    -0.10340
C3094       C  0.59622196  0.91435897  0.85661803     0.05850
C3095       C  0.58560485  0.94795615  0.86298833    -0.04110
C3096       C  0.57668799  0.96922855  0.84072842    -0.08560
C3097       C  0.57723046  0.95714437  0.81133166     0.04970
C3098       C  0.59032363  0.92509511  0.80464239    -0.03590
Br3099     Br  0.59916463  0.91183023  0.76498791    -0.03280
H3100       H  0.60790207  0.87836657  0.82135251     0.08880
H3101       H  0.56929521  0.99537031  0.84648636     0.06900
Br3102     Br  0.58240120  0.96455307  0.90211692    -0.03710
C3103       C  0.60802451  0.69568635  0.84827158    -0.10340
C3104       C  0.58064624  0.71133402  0.86040571     0.05850
C3105       C  0.54292162  0.70148786  0.84487625    -0.04110
C3106       C  0.53207498  0.67512973  0.81927749    -0.08560
C3107       C  0.55829710  0.65780510  0.80776730     0.04970
C3108       C  0.59752692  0.66973384  0.82226665    -0.03590
Br3109     Br  0.63926283  0.65361603  0.80681638    -0.03280
H3110       H  0.63826033  0.70451995  0.85862465     0.08880
H3111       H  0.50105472  0.66491813  0.80987717     0.06900
Br3112     Br  0.50140220  0.71758472  0.85990584    -0.03710
C3113       C  0.79312590  0.91902343  0.83215811    -0.10340
C3114       C  0.81028400  0.92201936  0.85990743     0.05850
C3115       C  0.85301366  0.92903921  0.86046609    -0.04110
C3116       C  0.87877246  0.94208270  0.83500594    -0.08560
C3117       C  0.86222427  0.94545946  0.80821243     0.04970
C3118       C  0.81777127  0.92756983  0.80654420    -0.03590
Br3119     Br  0.78877972  0.90362286  0.77084433    -0.03280
H3120       H  0.75971336  0.90722667  0.83010324     0.08880
H3121       H  0.91210253  0.95075649  0.83625576     0.06900
Br3122     Br  0.87704926  0.91916563  0.89437188    -0.03710
C3123       C  0.68535985  0.87998202  0.77589859    -0.10340
C3124       C  0.67061665  0.83642549  0.76596953     0.05850
C3125       C  0.65764986  0.80283293  0.78575350    -0.04110
C3126       C  0.66434557  0.81339580  0.81481756    -0.08560
C3127       C  0.68043069  0.85687092  0.82460308     0.04970
C3128       C  0.68985519  0.89029292  0.80531205    -0.03590
Br3129     Br  0.70837799  0.94952281  0.81864145    -0.03280
H3130       H  0.69436416  0.90609267  0.76092005     0.08880
H3131       H  0.65440610  0.78729282  0.83009611     0.06900
Br3132     Br  0.62722342  0.74228121  0.77477309    -0.03710
C3133       C  0.72025579  0.85922021  0.55637042    -0.10340
C3134       C  0.67916394  0.83457665  0.56879123     0.05850
C3135       C  0.64307631  0.82349947  0.55168250    -0.04110
C3136       C  0.64846549  0.83412606  0.52295518    -0.08560
C3137       C  0.68896829  0.85795868  0.51009258     0.04970
C3138       C  0.72527578  0.87228193  0.52752183    -0.03590
Br3139     Br  0.78108488  0.91291411  0.01428298    -0.03280
H3140       H  0.74848676  0.87041445  0.56947345     0.08880
H3141       H  0.61987046  0.82274583  0.51054700     0.06900
Br3142     Br  0.58490719  0.79666470  0.56547274    -0.03710
C3143       C  0.55168196  0.90118210  0.56954261    -0.10340
C3144       C  0.58347412  0.94248135  0.56070263     0.05850
C3145       C  0.62153896  0.96189181  0.57713829    -0.04110
C3146       C  0.62915330  0.93955557  0.59898078    -0.08560
C3147       C  0.59858977  0.89771841  0.60701818     0.04970
C3148       C  0.55841459  0.87929938  0.59270208    -0.03590
Br3149     Br  0.51051749  0.82613812  0.60472950    -0.03280
H3150       H  0.52065719  0.88684226  0.55933947     0.08880
H3151       H  0.65962648  0.95566589  0.61003879     0.06900
Br3152     Br  0.66467964  0.51993976  0.57272597    -0.03710
C3153       C  0.60050222  0.70758483  0.58197539    -0.10340
C3154       C  0.59045933  0.69401413  0.61086085     0.05850
C3155       C  0.56930967  0.64876011  0.61551447    -0.04110
C3156       C  0.55868422  0.61863680  0.59187042    -0.08560
C3157       C  0.56851419  0.63205595  0.56287481     0.04970
C3158       C  0.58881794  0.67733583  0.55816851    -0.03590
Br3159     Br  0.60342282  0.69942916  0.51992825    -0.03280
H3160       H  0.61921326  0.74187135  0.57792020     0.08880
H3161       H  0.54323820  0.58416038  0.59635697     0.06900
Br3162     Br  0.55562572  0.62642450  0.65391941    -0.03710
C3163       C  0.81882454  0.96689870  0.59337691    -0.10340
C3164       C  0.80847594  0.92847644  0.60822024     0.05850
C3165       C  0.82607796  0.90158615  0.59692260    -0.04110
C3166       C  0.85436537  0.91459122  0.57259492    -0.08560
C3167       C  0.86637392  0.95448852  0.55869525     0.04970
C3168       C  0.84801339  0.98056118  0.57000115    -0.03590
Br3169     Br  0.86034335  0.03544303  0.55484246    -0.03280
H3170       H  0.80370432  0.98680842  0.59983588     0.08880
H3171       H  0.86642367  0.89280515  0.56418032     0.06900
Br3172     Br  0.80769820  0.84390796  0.61090767    -0.03710
C3173       C  0.91285371  0.53840276  0.91066349    -0.10340
C3174       C  0.92832605  0.55859416  0.93799350     0.05850
C3175       C  0.93813594  0.60317297  0.94138684    -0.04110
C3176       C  0.92899478  0.62473416  0.91959059    -0.08560
C3177       C  0.91095973  0.60369788  0.89307031     0.04970
C3178       C  0.90533055  0.56093913  0.88830843    -0.03590
Br3179     Br  0.89410789  0.53601960  0.85008626    -0.03280
H3180       H  0.90913745  0.50617676  0.90610693     0.08880
H3181       H  0.93655834  0.65853317  0.92349535     0.06900
Br3182     Br  0.96502197  0.63750889  0.97516618    -0.03710
C3183       C  0.71399538  0.58834593  0.92589534    -0.10340
C3184       C  0.70079272  0.59072642  0.89763157     0.05850
C3185       C  0.65742627  0.58014474  0.89424480    -0.04110
C3186       C  0.62812928  0.56498103  0.91782273    -0.08560
C3187       C  0.64088739  0.56000561  0.94555359     0.04970
C3188       C  0.68497141  0.57582353  0.94972786    -0.03590
Br3189     Br  0.70671455  0.58833610  0.98812281    -0.03280
H3190       H  0.74738496  0.59815307  0.92975045     0.08880
H3191       H  0.59467594  0.55478852  0.91397486     0.06900
Br3192     Br  0.63589668  0.58154763  0.85706751    -0.03710
C3193       C  0.90901949  0.83598093  0.93687904    -0.10340
C3194       C  0.95106158  0.85330297  0.94765411     0.05850
C3195       C  0.97901614  0.84083200  0.93252785    -0.04110
C3196       C  0.96586252  0.81317749  0.90787038    -0.08560
C3197       C  0.92554436  0.79940593  0.89540696     0.04970
C3198       C  0.89640758  0.81028828  0.91072320    -0.03590
Br3199     Br  0.84091407  0.79472127  0.89583129    -0.03280
H3200       H  0.88740356  0.84626907  0.94701801     0.08880
H3201       H  0.98900359  0.80529494  0.89692709     0.06900
Br3202     Br  0.53841544  0.86834911  0.93960254    -0.03710
C3203       C  0.71466243  0.48497124  0.73643137    -0.10340
C3204       C  0.74798892  0.97625915  0.72620686     0.05850
C3205       C  0.78768382  0.99867255  0.74087213    -0.04110
C3206       C  0.79326404  0.52690954  0.76449944    -0.08560
C3207       C  0.76015467  0.53436387  0.77538037     0.04970
C3208       C  0.72047775  0.51307566  0.76105402    -0.03590
Br3209     Br  0.67260610  0.51714354  0.77715438    -0.03280
H3210       H  0.68336255  0.96780694  0.72658850     0.08880
H3211       H  0.82412239  0.54249562  0.77507720     0.06900
Br3212     Br  0.83704782  0.99257432  0.73225052    -0.03710
C3213       C  0.99007319  0.70738576  0.76432191    -0.10340
C3214       C  0.98320587  0.73982444  0.77926109     0.05850
C3215       C  0.51179055  0.78357777  0.77245127    -0.04110
C3216       C  0.54190208  0.79386650  0.74908682    -0.08560
C3217       C  0.54753717  0.76143655  0.73294024     0.04970
C3218       C  0.52237984  0.71780619  0.74244780    -0.03590
Br3219     Br  0.03118477  0.67063871  0.72716125    -0.03280
H3220       H  0.97000944  0.67353422  0.76943137     0.08880
H3221       H  0.56122256  0.82749161  0.74349227     0.06900
Br3222     Br  0.50923799  0.83000403  0.79503069    -0.03710
C3223       C  0.74835658  0.72556423  0.76434952    -0.10340
C3224       C  0.78828930  0.75297349  0.77715008     0.05850
C3225       C  0.81411745  0.79357731  0.76402723    -0.04110
C3226       C  0.79965673  0.80617204  0.73956369    -0.08560
C3227       C  0.76004585  0.77845556  0.72633399     0.04970
C3228       C  0.73455922  0.73731964  0.73915967    -0.03590
Br3229     Br  0.68010263  0.69530360  0.72378729    -0.03280
H3230       H  0.72859551  0.69354158  0.77307387     0.08880
H3231       H  0.81971342  0.83811413  0.73079583     0.06900
Br3232     Br  0.86937505  0.83386887  0.77911349    -0.03710
C3233       C  0.79824029  0.68909537  0.97288308    -0.10340
C3234       C  0.83099732  0.68654259  0.98831665     0.05850
C3235       C  0.86826433  0.69272603  0.97339679    -0.04110
C3236       C  0.86803342  0.68991513  0.94373625    -0.08560
C3237       C  0.83174273  0.68296160  0.92901958     0.04970
C3238       C  0.79901051  0.68834493  0.94289915    -0.03590
Br3239     Br  0.75609492  0.69521344  0.92250065    -0.03280
H3240       H  0.77121975  0.68996171  0.98388937     0.08880
H3241       H  0.89569625  0.69169717  0.93204378     0.06900
Br3242     Br  0.92035441  0.70530903  0.49043146    -0.03710
C3243       C  0.87567152  0.66095715  0.69540011    -0.10340
C3244       C  0.85504886  0.67922843  0.67996644     0.05850
C3245       C  0.82754011  0.69283416  0.69374419    -0.04110
C3246       C  0.81889400  0.68527902  0.72287139    -0.08560
C3247       C  0.83675612  0.66341560  0.73792789     0.04970
C3248       C  0.86596691  0.65180848  0.72427359    -0.03590
Br3249     Br  0.88941634  0.61913604  0.74265407    -0.03280
H3250       H  0.89617051  0.65010728  0.68445328     0.08880
H3251       H  0.79773658  0.69595204  0.73360463     0.06900
Br3252     Br  0.79929409  0.71904232  0.67316929    -0.03710
C3253       C  0.94179990  0.59566169  0.68022317    -0.10340
C3254       C  0.92045576  0.55228695  0.68949977     0.05850
C3255       C  0.88564709  0.52256446  0.67198117    -0.04110
C3256       C  0.86764132  0.53819983  0.65141788    -0.08560
C3257       C  0.88858178  0.58186652  0.64242409     0.04970
C3258       C  0.92830911  0.60977664  0.65601778    -0.03590
Br3259     Br  0.96599771  0.66805937  0.64362930    -0.03280
H3260       H  0.97094512  0.61821949  0.69059458     0.08880
H3261       H  0.83789688  0.51533866  0.64158853     0.06900
Br3262     Br  0.86523666  0.96024888  0.67153359    -0.03710
C3263       C  0.71264564  0.58851287  0.67081734    -0.10340
C3264       C  0.69561534  0.58561750  0.64316758     0.05850
C3265       C  0.65147812  0.57308268  0.64125032    -0.04110
C3266       C  0.62468128  0.55750969  0.66573942    -0.08560
C3267       C  0.64169744  0.55933302  0.69324564     0.04970
C3268       C  0.68655362  0.57866528  0.69575550    -0.03590
Br3269     Br  0.71437150  0.59992697  0.73208212    -0.03280
H3270       H  0.74691865  0.60199524  0.67332172     0.08880
H3271       H  0.59070866  0.54665017  0.66359979     0.06900
Br3272     Br  0.62659149  0.58072763  0.60703623    -0.03710
C3273       C  0.92595978  0.78985363  0.67216001    -0.10340
C3274       C  0.91294558  0.79963061  0.64596746     0.05850
C3275       C  0.91751325  0.84208446  0.64376625    -0.04110
C3276       C  0.93172521  0.87197557  0.66763991    -0.08560
C3277       C  0.94726404  0.86334537  0.69313757     0.04970
C3278       C  0.94244097  0.82089645  0.69538341    -0.03710
Br3279     Br  0.95116230  0.80154458  0.73111046    -0.03280
H3280       H  0.92333776  0.75783880  0.67478642     0.08880
H3281       H  0.93247048  0.90311105  0.66552913     0.06900
Br3282     Br  0.91245533  0.86370561  0.60725016    -0.03710
C3283       C  0.72678483  0.51581660  0.51166801    -0.10340
C3284       C  0.76877321  0.54687258  0.51926950     0.05850
C3285       C  0.80169912  0.54908749  0.49985372    -0.04110
C3286       C  0.79270723  0.01897608  0.97594877    -0.08560
C3287       C  0.75040712  0.98842718  0.96893463     0.04970
C3288       C  0.71756594  0.98869853  0.98656538    -0.03590
Br3289     Br  0.65907563  0.95468929  0.97576541    -0.03280
H3290       H  0.70014284  0.51429682  0.52395263     0.08880
H3291       H  0.81868689  0.02081426  0.96208070     0.06900
Br3292     Br  0.85835813  0.59609760  0.50186285    -0.03710
C3293       C  0.00254516  0.79749364  0.52527373    -0.10340
C3294       C  0.98546742  0.75711861  0.53877625     0.05850
C3295       C  0.00094985  0.72751410  0.52955588    -0.04110
C3296       C  0.52696947  0.73608963  0.00460420    -0.08560
C3297       C  0.54205850  0.77541974  0.98971412     0.04970
C3298       C  0.53367885  0.80813811  0.00318891    -0.03590
Br3299     Br  0.57373048  0.86847187  0.00232239    -0.03280
H3300       H  0.99344710  0.82180038  0.53314783     0.08880
H3301       H  0.53613703  0.71176495  0.99709608     0.06900
Br3302     Br  0.98648177  0.67376946  0.54868122    -0.03710
C3303       C  0.71313993  0.73994985  0.49597212    -0.10340
C3304       C  0.73889904  0.77800520  0.98056665     0.05850
C3305       C  0.78169587  0.80389768  0.99028921    -0.04110
C3306       C  0.79685284  0.79191439  0.51457247    -0.08560
C3307       C  0.77068359  0.75440024  0.53031541     0.04970
C3308       C  0.72813462  0.72818404  0.52044376    -0.03590
Br3309     Br  0.68925975  0.67382620  0.53769916    -0.03280
H3310       H  0.68086035  0.71872765  0.48875314     0.08880
H3311       H  0.82983944  0.81207685  0.52102929     0.06900
Br3312     Br  0.82206867  0.85651459  0.97203886    -0.03710
loop_ 
_geom_bond_atom_site_label_1 
_geom_bond_atom_site_label_2 
_geom_bond_distance 
_geom_bond_site_symmetry_2 
_ccdc_geom_bond_type 
O1            C9   1.282       .  A
O1          Co21   2.031       .  S
O2           C10   1.250       .  A
O2          Co22   1.921       .  S
O3           C11   1.272       .  A
O3          Co23   1.985       .  S
O4           C12   1.281       .  A
O4          Co24   2.084       .  S
O5           C11   1.284       .  A
O5          Co22   2.021       .  S
O6           C12   1.255       .  A
O6          Co21   2.005       .  S
O7           C10   1.286       .  A
O7          Co24   2.030       .  S
O8            C9   1.279       .  A
O8          Co23   1.998       .  S
C9          C409   1.510       .  S
C10         C346   1.418       .  S
C11         C366   1.490       .  S
C12         C376   1.512       .  S
O13          C26   1.298       .  A
O13         Co21   1.995       .  S
O14          C27   1.266       .  A
O14         Co22   2.026       .  S
O15         C442   1.254       .  A
O15         Co23   1.932       .  S
O16          C29   1.305       .  A
O16         Co24   2.126       .  S
O17          C29   1.275       .  A
O17         Co22   1.921       .  S
O18         C442   1.264       .  A
O18         Co21   1.966       .  S
O19          C26   1.288       .  A
O19         Co24   1.965       .  S
O20          C27   1.273       .  A
O20         Co23   2.033       .  S
Co21         O25   2.014       .  S
Co22         O25   1.914       .  S
Co23         O25   2.041       .  S
Co24         O25   2.055       .  S
C26         C396   1.492       .  S
C27         C386   1.535       .  S
C28         O429   1.254       .  A
C28         O432   1.264       .  A
C28         C336   1.453       .  S
C29         C359   1.524       .  S
O30          C38   1.271       .  A
O30         Co50   1.973       .  S
O31          C39   1.252       .  A
O31         Co51   2.006       .  S
O32          C40   1.267       .  A
O32         Co52   1.944       .  S
O33          C41   1.264       .  A
O33         Co53   1.956       .  S
O34          C40   1.302       .  A
O34         Co51   2.138       .  S
O35          C41   1.275       .  A
O35         Co50   2.024       .  S
O36          C39   1.258       .  A
O36         Co53   1.986       .  S
O37          C38   1.261       .  A
O37         Co52   1.954       .  S
C38         C349   1.430       .  S
C39         C279   1.512       .  S
C40         C316   1.535       .  S
C41         C309   1.499       .  S
O42          C55   1.277       .  A
O42         Co50   2.025       .  S
O43          C56   1.249       .  A
O43         Co51   1.911       .  S
O44          C57   1.263       .  A
O44         Co52   2.004       .  S
O45          C58   1.273       .  A
O45         Co53   1.983       .  S
O46          C58   1.248       .  A
O46         Co51   1.970       .  S
O47          C57   1.276       .  A
O47         Co50   2.008       .  S
O48          C55   1.272       .  A
O48         Co53   2.022       .  S
O49          C56   1.297       .  A
O49         Co52   2.137       .  S
Co50         O54   2.054       .  S
Co51         O54   2.013       .  S
Co52         O54   2.039       .  S
Co53         O54   2.054       .  S
C55         C286   1.517       .  S
C56         C299   1.500       .  S
C57         C326   1.513       .  S
C58         C339   1.409       .  S
O59          C67   1.277       .  A
O59         Co79   2.030       .  S
O60          C68   1.251       .  A
O60         Co80   1.999       .  S
O61          C69   1.280       .  A
O61         Co81   2.000       .  S
O62          C70   1.278       .  A
O62         Co82   1.932       .  S
O63          C69   1.291       .  A
O63         Co80   2.042       .  S
O64          C70   1.308       .  A
O64         Co79   2.111       .  S
O65          C68   1.234       .  A
O65         Co82   1.970       .  S
O66          C67   1.277       .  A
O66         Co81   1.997       .  S
C67         C329   1.520       .  S
C68         C236   1.468       .  S
C69         C256   1.503       .  S
C70         C266   1.519       .  S
O71          C84   1.265       .  A
O71         Co79   1.916       .  S
O72          C85   1.280       .  A
O72         Co80   2.045       .  S
O73          C86   1.260       .  A
O73         Co81   1.960       .  S
O74          C87   1.319       .  A
O74         Co82   2.141       .  S
O75          C87   1.287       .  A
O75         Co80   1.905       .  S
O76          C86   1.249       .  A
O76         Co79   1.962       .  S
O77          C84   1.305       .  A
O77         Co82   2.126       .  S
O78          C85   1.276       .  A
O78         Co81   2.037       .  S
Co79         O83   1.982       .  S
Co80         O83   1.906       .  S
Co81         O83   2.026       .  S
Co82         O83   2.044       .  S
C84         C306   1.514       .  S
C85         C319   1.548       .  S
C86         C226   1.442       .  S
C87         C249   1.512       .  S
O88          C96   1.280       .  A
O88        Co108   2.010       .  S
O89          C97   1.253       .  A
O89        Co109   1.936       .  S
O90          C98   1.282       .  A
O90        Co110   2.032       .  S
O91          C99   1.320       .  A
O91        Co111   2.150       .  S
O92          C98   1.268       .  A
O92        Co109   1.975       .  S
O93          C99   1.282       .  A
O93        Co108   1.915       .  S
O94          C97   1.287       .  A
O94        Co111   1.990       .  S
O95          C96   1.284       .  A
O95        Co110   2.026       .  S
C96         C406   1.517       .  S
C97         C229   1.423       .  S
C98         C206   1.512       .  S
C99         C216   1.519       .  S
O100        C113   1.305       .  A
O100       Co108   2.125       .  S
O101        C114   1.324       .  A
O101       Co109   2.170       .  S
O102        C529   1.253       .  A
O102       Co110   1.951       .  S
O103        C116   1.309       .  A
O103       Co111   2.136       .  S
O104        C116   1.283       .  A
O104       Co109   1.921       .  S
O105        C529   1.296       .  A
O105       Co108   2.065       .  S
O106        C113   1.273       .  A
O106       Co111   1.937       .  S
O107        C114   1.279       .  A
O107       Co110   1.876       .  S
Co108       O112   1.962       .  S
Co109       O112   1.932       .  S
Co110       O112   1.780       .  S
Co111       O112   1.995       .  S
C113        C389   1.505       .  S
C114        C399   1.515       .  S
C115        O516   1.253       .  A
C115        O519   1.296       .  A
C115        C239   1.476   1_556  S
C116        C196   1.507       .  S
O117        C125   1.270       .  A
O117       Co137   1.996       .  S
O118        C126   1.264   1_455  A
O118       Co138   1.954   1_565  S
O119        C127   1.296       .  A
O119       Co553   2.134   1_554  S
O120        C128   1.274       .  A
O120       Co968   2.032       .  S
O121        C127   1.258       .  A
O121       Co966   1.932       .  S
O122        C128   1.263       .  A
O122       Co551   2.003   1_554  S
O123       C1782   1.268   1_545  A
O123       Co140   1.957       .  S
O124        C125   1.267       .  A
O124      Co1795   1.997       .  S
C125        C296   1.509       .  S
C126       O1779   1.268   1_565  A
C126        C186   1.439       .  S
C127        C246   1.519       .  S
C128        C269   1.526       .  S
O129        C142   1.290   1_565  A
O129       Co965   2.080       .  S
O130        C143   1.297       .  A
O130       Co552   2.118       .  S
O131        C144   1.265   1_455  A
O131       Co139   1.956       .  S
O132        C145   1.265       .  A
O132      Co1796   2.005   1_455  S
O133        C145   1.254       .  A
O133       Co138   1.997       .  S
O134       C1800   1.261       .  A
O134       Co137   1.962       .  S
O135        C556   1.262       .  A
O135       Co140   1.957   1_556  S
O136        C143   1.271   1_565  A
O136       Co967   1.942       .  S
Co137       O536   2.003       .  S
Co137       O957   2.080       .  S
Co137      O3039   2.066       .  S
Co138       O949   1.932       .  S
Co138       O544   2.118   1_554  S
Co138       O141   2.014   1_444  S
Co139       O533   2.134       .  S
Co139      O1780   1.997       .  S
Co139       O964   1.942       .  S
Co139      O1383   2.016   1_455  S
Co140       O948   2.032       .  S
Co140      O1788   2.005       .  S
Co140      O1797   2.040   1_544  S
O141      Co3035   2.066       .  S
O141      Co1381   2.016   1_655  S
O141      Co1796   2.040   1_566  S
C142        O549   1.262       .  A
C142        C276   1.519       .  S
C143        C289   1.517       .  S
C144       O1790   1.261       .  A
C144        C179   1.415       .  S
C145        C259   1.509       .  S
O146        C154   1.298       .  A
O146       Co166   2.102       .  S
O147        C155   1.255       .  A
O147       Co167   1.971       .  S
O148        C156   1.264       .  A
O148       Co168   2.002       .  S
O149        C157   1.297       .  A
O149       Co997   1.999       .  S
O150        C156   1.268       .  A
O150       Co995   2.014       .  S
O151        C157   1.291       .  A
O151       Co166   2.001       .  S
O152       C1811   1.254       .  A
O152       Co169   1.938       .  S
O153        C154   1.284       .  A
O153      Co1824   1.954       .  S
C154        C379   1.519       .  S
C155       O1808   1.254   1_455  A
C155        C176   1.419       .  S
C156        C199   1.507       .  S
C157        C219   1.506       .  S
O158        C171   1.283   1_565  A
O158       Co994   2.083       .  S
O159        C172   1.277       .  A
O159       Co167   1.990       .  S
O160       C1829   1.240   1_455  A
O160       Co168   1.891       .  S
O161        C174   1.283       .  A
O161      Co1825   2.043   1_455  S
O162        C174   1.275       .  A
O162       Co167   1.986       .  S
O163        C173   1.295       .  A
O163       Co166   2.054       .  S
O164        C171   1.260       .  A
O164       Co169   2.023       .  S
O165        C172   1.288       .  A
O165       Co996   2.027   1_545  S
Co166       O986   2.083       .  S
Co166      O2654   2.058       .  S
Co167       O978   2.014       .  S
Co167       O170   2.055       .  S
Co168      O1809   1.954       .  S
Co168       O993   2.027       .  S
Co168       O998   1.934       .  S
Co169       O977   1.999       .  S
Co169      O1817   2.043       .  S
Co169      O1826   2.003       .  S
O170      Co2650   2.058   1_445  S
O170       Co996   1.934   1_545  S
O170      Co1825   2.003   1_455  S
C171        C356   1.530       .  S
C172        C369   1.488       .  S
C173       O1816   1.240       .  A
C173        C189   1.432       .  S
C174        C209   1.510       .  S
C175        C180   1.365       .  A
C175       C2660   1.377       .  A
C175        H182   1.086       .  S
C176        C177   1.403       .  A
C176       C2659   1.377   1_445  A
C177        C178   1.368       .  A
C177       Br184   1.867       .  S
C178       C1007   1.378   1_445  A
C178        H183   1.086       .  S
C179       C1006   1.378   1_655  A
C179       C1836   1.403       .  A
C180       C1835   1.403       .  A
C180       Br181   1.867       .  S
C185        C186   1.401       .  A
C185        C190   1.376   1_655  A
C185        H192   1.080   1_655  S
C186       C1843   1.407   1_565  A
C187       C1842   1.407   1_545  A
C187       C1016   1.370       .  A
C187       Br194   1.918       .  S
C188        C189   1.377       .  A
C188       C1015   1.370       .  A
C188        H193   1.053       .  S
C189       C2674   1.406       .  A
C190       C2673   1.406   1_455  A
C190       Br191   1.924       .  S
C195        C196   1.411       .  A
C195        C200   1.417       .  A
C195        H202   1.081       .  S
C196        C197   1.399       .  A
C197        C198   1.410       .  A
C197       Br204   1.888       .  S
C198        C199   1.405       .  A
C198        H203   1.076       .  S
C199        C200   1.410       .  A
C200       Br201   1.921       .  S
C205        C206   1.408       .  A
C205        C210   1.417       .  A
C205        H212   1.083       .  S
C206        C207   1.418       .  A
C207        C208   1.409       .  A
C207       Br214   1.905       .  S
C208        C209   1.404       .  A
C208        H213   1.079       .  S
C209        C210   1.425       .  A
C210       Br211   1.919       .  S
C215        C216   1.409       .  A
C215        C220   1.404       .  A
C215        H222   1.059       .  S
C216        C217   1.414       .  A
C217        C218   1.418       .  A
C217       Br224   1.915       .  S
C218        C219   1.412       .  A
C218        H223   1.073       .  S
C219        C220   1.396       .  A
C220       Br221   1.906       .  S
C225        C226   1.406       .  A
C225        C230   1.383       .  A
C225        H232   1.078       .  S
C226        C227   1.398       .  A
C227        C228   1.372       .  A
C227       Br234   1.908       .  S
C228        C229   1.397       .  A
C228        H233   1.084       .  S
C229        C230   1.394       .  A
C230       Br231   1.917       .  S
C235        C236   1.413       .  A
C235        C240   1.401       .  A
C235        H242   1.078       .  S
C236        C237   1.402       .  A
C237        C238   1.373       .  A
C237       Br244   1.918       .  S
C238        C239   1.403       .  A
C238        H243   1.069       .  S
C239        C240   1.402       .  A
C240       Br655   1.909       .  S
Br241       C654   1.909       .  S
C245        C246   1.410       .  A
C245        C250   1.420       .  A
C245        H252   1.081       .  S
C246        C247   1.415       .  A
C247        C248   1.398       .  A
C247      Br1082   1.883       .  S
C248        C249   1.398       .  A
C248        H253   1.084       .  S
C249        C250   1.423       .  A
C250       Br251   1.915       .  S
Br254      C1075   1.883   1_545  S
C255        C256   1.410       .  A
C255        C260   1.414       .  A
C255        H262   1.075       .  S
C256        C257   1.407       .  A
C257        C258   1.408       .  A
C257       Br264   1.918       .  S
C258        C259   1.413       .  A
C258        H263   1.081       .  S
C259        C260   1.408       .  A
C260       Br261   1.910       .  S
C265        C266   1.405       .  A
C265        C270   1.405       .  A
C265        H272   1.082       .  S
C266        C267   1.419       .  A
C267        C268   1.421       .  A
C267       Br274   1.920       .  S
C268        C269   1.416       .  A
C268        H273   1.082       .  S
C269        C270   1.415       .  A
C270       Br271   1.898       .  S
C275        C276   1.409       .  A
C275        C280   1.419       .  A
C275        H282   1.073       .  S
C276        C277   1.418       .  A
C277        C278   1.405       .  A
C277       Br284   1.901       .  S
C278        C279   1.403       .  A
C278        H283   1.080       .  S
C279        C280   1.407       .  A
C280       Br281   1.898       .  S
C285        C286   1.414       .  A
C285        C290   1.417       .  A
C285        H292   1.082       .  S
C286        C287   1.411       .  A
C287        C288   1.416       .  A
C287       Br294   1.905       .  S
C288        C289   1.410       .  A
C288        H293   1.081       .  S
C289        C290   1.404       .  A
C290       Br291   1.900       .  S
C295        C296   1.412       .  A
C295        C300   1.420       .  A
C295        H302   1.074       .  S
C296        C297   1.411       .  A
C297        C298   1.397       .  A
C297      Br1960   1.886       .  S
C298        C299   1.404       .  A
C298        H303   1.084       .  S
C299        C300   1.416       .  A
C300       Br301   1.913       .  S
Br304      C1953   1.886   1_455  S
C305        C310   1.420   1_565  A
C305       C1134   1.412       .  A
C305       H1140   1.082       .  S
C306        C307   1.420       .  A
C306       C1133   1.412       .  A
C307       C1136   1.389       .  A
C307       Br314   1.884       .  S
C308        C309   1.389       .  A
C308       C1135   1.389   1_545  A
C308        H313   1.083       .  S
C309        C310   1.410       .  A
C310       Br311   1.893       .  S
H312       C1133   1.082       .  S
C315        C316   1.408       .  A
C315       C1976   1.426       .  A
C315        H322   1.079       .  S
C316       C1973   1.414       .  A
C317        C318   1.426       .  A
C317       C1972   1.414   1_455  A
C317       Br324   1.917       .  S
C318        C319   1.411       .  A
C318        H323   1.076       .  S
C319        C320   1.427       .  A
C320       C1971   1.426   1_455  A
C320      Br1977   1.907       .  S
Br321      C1976   1.907       .  S
C325        C326   1.409       .  A
C325        C330   1.416       .  A
C325        H332   1.083       .  S
C326        C327   1.418       .  A
C327        C328   1.415       .  A
C327       Br334   1.919       .  S
C328        C329   1.411       .  A
C328        H333   1.083       .  S
C329        C330   1.423       .  A
C330       Br331   1.920       .  S
C335        C336   1.414       .  A
C335        C340   1.381       .  A
C335        H342   1.082       .  S
C336        C337   1.398       .  A
C337        C338   1.367       .  A
C337       Br758   1.869       .  S
C338        C339   1.381       .  A
C338        H343   1.081       .  S
C339        C340   1.392       .  A
C340       Br341   1.917       .  S
Br344       C751   1.869       .  S
C345        C346   1.390       .  A
C345        C350   1.377       .  A
C345        H352   1.069       .  S
C346        C347   1.395       .  A
C347        C348   1.377       .  A
C347       Br354   1.920       .  S
C348        C349   1.402       .  A
C348        H353   1.080       .  S
C349        C350   1.400       .  A
C350       Br351   1.918       .  S
C355        C356   1.406       .  A
C355        C360   1.415       .  A
C355        H362   1.069       .  S
C356        C357   1.423       .  A
C357        C358   1.411       .  A
C357      Br1192   1.927   1_545  S
C358        C359   1.410       .  A
C358        H363   1.074       .  S
C359        C360   1.423       .  A
C360       Br361   1.924       .  S
Br364      C1185   1.927       .  S
C365        C366   1.404       .  A
C365        C370   1.403       .  A
C365        H372   1.082       .  S
C366        C367   1.414       .  A
C367        C368   1.405       .  A
C367       Br374   1.912       .  S
C368        C369   1.404       .  A
C368        H373   1.083       .  S
C369        C370   1.408       .  A
C370       Br371   1.904       .  S
C375        C376   1.411       .  A
C375        C380   1.413       .  A
C375        H382   1.080       .  S
C376        C377   1.409       .  A
C377        C378   1.410       .  A
C377       Br384   1.915       .  S
C378        C379   1.410       .  A
C378        H383   1.074       .  S
C379        C380   1.406       .  A
C380       Br381   1.888       .  S
C385        C386   1.408       .  A
C385       C1632   1.405   1_544  A
C385        H392   1.067       .  S
C386        C387   1.424   1_554  A
C387       C1630   1.421       .  A
C387       Br394   1.900   1_556  S
C388        C389   1.405       .  A
C388       C1629   1.421       .  A
C388        H393   1.083       .  S
C389        C390   1.403       .  A
C390       C1627   1.405       .  A
C390       Br391   1.906       .  S
C395        C396   1.401       .  A
C395       C2470   1.405       .  A
C395        H402   1.081       .  S
C396        C397   1.418       .  A
C397       C2468   1.404       .  A
C397       Br404   1.927       .  S
C398        C399   1.408       .  A
C398       C2467   1.404       .  A
C398        H403   1.078       .  S
C399        C400   1.417       .  A
C400       C2465   1.405       .  A
C400       Br401   1.897       .  S
C405        C410   1.411   1_556  A
C405        C820   1.408       .  A
C405        H412   1.080       .  S
C406        C407   1.423       .  A
C406        C819   1.408       .  A
C407        C822   1.410       .  A
C407       Br414   1.919       .  S
C408        C409   1.407       .  A
C408        C821   1.410   1_554  A
C408        H413   1.083       .  S
C409        C410   1.420       .  A
C410       Br411   1.923       .  S
O415        C423   1.282       .  A
O415       Co435   2.031       .  S
O416        C424   1.250       .  A
O416       Co436   1.921       .  S
O417        C425   1.272       .  A
O417       Co437   1.985       .  S
O418        C426   1.281       .  A
O418       Co438   2.084       .  S
O419        C425   1.284       .  A
O419       Co436   2.021       .  S
O420        C426   1.255       .  A
O420       Co435   2.005       .  S
O421        C424   1.286       .  A
O421       Co438   2.030       .  S
O422        C423   1.279       .  A
O422       Co437   1.998       .  S
C423        C823   1.510       .  S
C424        C760   1.418       .  S
C425        C780   1.490       .  S
C426        C790   1.512       .  S
O427        C440   1.298       .  A
O427       Co435   1.995       .  S
O428        C441   1.266       .  A
O428       Co436   2.026       .  S
O429       Co437   1.932       .  S
O430        C443   1.305       .  A
O430       Co438   2.126       .  S
O431        C443   1.275       .  A
O431       Co436   1.921       .  S
O432       Co435   1.966       .  S
O433        C440   1.288       .  A
O433       Co438   1.965       .  S
O434        C441   1.273       .  A
O434       Co437   2.033       .  S
Co435       O439   2.014       .  S
Co436       O439   1.914       .  S
Co437       O439   2.041       .  S
Co438       O439   2.055       .  S
C440        C810   1.492       .  S
C441        C800   1.535       .  S
C442        C750   1.453   1_554  S
C443        C773   1.524       .  S
O444        C452   1.271       .  A
O444       Co464   1.973       .  S
O445        C453   1.252       .  A
O445       Co465   2.006       .  S
O446        C454   1.267       .  A
O446       Co466   1.944       .  S
O447        C455   1.264       .  A
O447       Co467   1.956       .  S
O448        C454   1.302       .  A
O448       Co465   2.138       .  S
O449        C455   1.275       .  A
O449       Co464   2.024       .  S
O450        C453   1.258       .  A
O450       Co467   1.986       .  S
O451        C452   1.261       .  A
O451       Co466   1.954       .  S
C452        C763   1.430       .  S
C453        C693   1.512       .  S
C454        C730   1.535       .  S
C455        C723   1.499       .  S
O456        C469   1.277       .  A
O456       Co464   2.025       .  S
O457        C470   1.249       .  A
O457       Co465   1.911       .  S
O458        C471   1.263       .  A
O458       Co466   2.004       .  S
O459        C472   1.273       .  A
O459       Co467   1.983       .  S
O460        C472   1.248       .  A
O460       Co465   1.970       .  S
O461        C471   1.276       .  A
O461       Co464   2.008       .  S
O462        C469   1.272       .  A
O462       Co467   2.022       .  S
O463        C470   1.297       .  A
O463       Co466   2.137       .  S
Co464       O468   2.054       .  S
Co465       O468   2.013       .  S
Co466       O468   2.039       .  S
Co467       O468   2.054       .  S
C469        C700   1.517       .  S
C470        C713   1.500       .  S
C471        C740   1.513       .  S
C472        C753   1.409       .  S
O473        C481   1.277       .  A
O473       Co493   2.030       .  S
O474        C482   1.251       .  A
O474       Co494   1.999       .  S
O475        C483   1.280       .  A
O475       Co495   2.000       .  S
O476        C484   1.278       .  A
O476       Co496   1.932       .  S
O477        C483   1.291       .  A
O477       Co494   2.042       .  S
O478        C484   1.308       .  A
O478       Co493   2.111       .  S
O479        C482   1.234       .  A
O479       Co496   1.970       .  S
O480        C481   1.277       .  A
O480       Co495   1.997       .  S
C481        C743   1.520       .  S
C482        C650   1.468       .  S
C483        C670   1.503       .  S
C484        C680   1.519       .  S
O485        C498   1.265       .  A
O485       Co493   1.916       .  S
O486        C499   1.280       .  A
O486       Co494   2.045       .  S
O487        C500   1.260       .  A
O487       Co495   1.960       .  S
O488        C501   1.319       .  A
O488       Co496   2.141       .  S
O489        C501   1.287       .  A
O489       Co494   1.905       .  S
O490        C500   1.249       .  A
O490       Co493   1.962       .  S
O491        C498   1.305       .  A
O491       Co496   2.126       .  S
O492        C499   1.276       .  A
O492       Co495   2.037       .  S
Co493       O497   1.982       .  S
Co494       O497   1.906       .  S
Co495       O497   2.026       .  S
Co496       O497   2.044       .  S
C498        C720   1.514       .  S
C499        C733   1.548       .  S
C500        C640   1.442       .  S
C501        C663   1.512       .  S
O502        C510   1.280       .  A
O502       Co522   2.010       .  S
O503        C511   1.253       .  A
O503       Co523   1.936       .  S
O504        C512   1.282       .  A
O504       Co524   2.032       .  S
O505        C513   1.320       .  A
O505       Co525   2.150       .  S
O506        C512   1.268       .  A
O506       Co523   1.975       .  S
O507        C513   1.282       .  A
O507       Co522   1.915       .  S
O508        C511   1.287       .  A
O508       Co525   1.990       .  S
O509        C510   1.284       .  A
O509       Co524   2.026       .  S
C510        C820   1.517       .  S
C511        C643   1.423       .  S
C512        C620   1.512       .  S
C513        C630   1.519       .  S
O514        C527   1.305       .  A
O514       Co522   2.125       .  S
O515        C528   1.324       .  A
O515       Co523   2.170       .  S
O516       Co524   1.951       .  S
O517        C530   1.309       .  A
O517       Co525   2.136       .  S
O518        C530   1.283       .  A
O518       Co523   1.921       .  S
O519       Co522   2.065       .  S
O520        C527   1.273       .  A
O520       Co525   1.937       .  S
O521        C528   1.279       .  A
O521       Co524   1.876       .  S
Co522       O526   1.962       .  S
Co523       O526   1.932       .  S
Co524       O526   1.780       .  S
Co525       O526   1.995       .  S
C527        C803   1.505       .  S
C528        C813   1.515       .  S
C529        C653   1.476       .  S
C530        C610   1.507       .  S
O531        C539   1.270       .  A
O531       Co551   1.996       .  S
O532        C540   1.264   1_455  A
O532       Co552   1.954   1_565  S
O533        C541   1.296       .  A
O534        C542   1.274       .  A
O534      Co1382   2.032       .  S
O535        C541   1.258       .  A
O535      Co1380   1.932       .  S
O536        C542   1.263       .  A
O537       C2196   1.268   1_545  A
O537       Co554   1.957       .  S
O538        C539   1.267       .  A
O538      Co2209   1.997       .  S
C539        C710   1.509       .  S
C540       O2193   1.268   1_565  A
C540        C600   1.439       .  S
C541        C660   1.519       .  S
C542        C683   1.526       .  S
O543        C556   1.290   1_565  A
O543      Co1379   2.080       .  S
O544        C557   1.297       .  A
O545        C558   1.265   1_455  A
O545       Co553   1.956       .  S
O546        C559   1.265       .  A
O546      Co2210   2.005   1_455  S
O547        C559   1.254       .  A
O547       Co552   1.997       .  S
O548       C2214   1.261       .  A
O548       Co551   1.962       .  S
O549       Co554   1.957       .  S
O550        C557   1.271   1_565  A
O550      Co1381   1.942       .  S
Co551      O1371   2.080       .  S
Co551      O2625   2.066       .  S
Co552      O1363   1.932       .  S
Co552       O555   2.014   1_445  S
Co553      O2194   1.997       .  S
Co553      O1378   1.942       .  S
Co553       O969   2.016   1_455  S
Co554      O1362   2.032       .  S
Co554      O2202   2.005       .  S
Co554      O2211   2.040   1_545  S
O555      Co2621   2.066       .  S
O555       Co967   2.016   1_655  S
O555      Co2210   2.040   1_565  S
C556        C690   1.519       .  S
C557        C703   1.517       .  S
C558       O2204   1.261       .  A
C558        C593   1.415       .  S
C559        C673   1.509       .  S
O560        C568   1.298       .  A
O560       Co580   2.102       .  S
O561        C569   1.255       .  A
O561       Co581   1.971       .  S
O562        C570   1.264       .  A
O562       Co582   2.002       .  S
O563        C571   1.297       .  A
O563      Co1411   1.999       .  S
O564        C570   1.268       .  A
O564      Co1409   2.014       .  S
O565        C571   1.291       .  A
O565       Co580   2.001       .  S
O566       C2225   1.254       .  A
O566       Co583   1.938       .  S
O567        C568   1.284       .  A
O567      Co2238   1.954       .  S
C568        C793   1.519       .  S
C569       O2222   1.254   1_455  A
C569        C590   1.419       .  S
C570        C613   1.507       .  S
C571        C633   1.506       .  S
O572        C585   1.283   1_565  A
O572      Co1408   2.083       .  S
O573        C586   1.277       .  A
O573       Co581   1.990       .  S
O574       C2243   1.240   1_455  A
O574       Co582   1.891       .  S
O575        C588   1.283       .  A
O575      Co2239   2.043   1_455  S
O576        C588   1.275       .  A
O576       Co581   1.986       .  S
O577        C587   1.295       .  A
O577       Co580   2.054       .  S
O578        C585   1.260       .  A
O578       Co583   2.023       .  S
O579        C586   1.288       .  A
O579      Co1410   2.027   1_545  S
Co580      O1400   2.083       .  S
Co580      O3068   2.058       .  S
Co581      O1392   2.014       .  S
Co581       O584   2.055       .  S
Co582      O2223   1.954       .  S
Co582      O1407   2.027       .  S
Co582      O1412   1.934       .  S
Co583      O1391   1.999       .  S
Co583      O2231   2.043       .  S
Co583      O2240   2.003       .  S
O584      Co3064   2.058   1_445  S
O584      Co1410   1.934   1_545  S
O584      Co2239   2.003   1_455  S
C585        C770   1.530       .  S
C586        C783   1.488       .  S
C587       O2230   1.240       .  A
C587        C603   1.432       .  S
C588        C623   1.510       .  S
C589       C3074   1.377       .  A
C589        C594   1.365       .  A
C589        H596   1.086       .  S
C590       C3073   1.377   1_445  A
C590        C591   1.403       .  A
C591        C592   1.368       .  A
C591       Br598   1.867       .  S
C592       C1421   1.378   1_445  A
C592        H597   1.086       .  S
C593       C1420   1.378   1_655  A
C593       C2250   1.403       .  A
C594       C2249   1.403       .  A
C594       Br595   1.867       .  S
C599        C600   1.401       .  A
C599        C604   1.376   1_655  A
C599        H606   1.080   1_655  S
C600       C2257   1.407   1_565  A
C601       C2256   1.407   1_545  A
C601       C1430   1.370       .  A
C601       Br608   1.918       .  S
C602       C1429   1.370       .  A
C602        C603   1.377       .  A
C602        H607   1.053       .  S
C603       C3088   1.406       .  A
C604       C3087   1.406   1_455  A
C604       Br605   1.924       .  S
C609        C610   1.411       .  A
C609        C614   1.417       .  A
C609        H616   1.081       .  S
C610        C611   1.399       .  A
C611        C612   1.410       .  A
C611       Br618   1.888       .  S
C612        C613   1.405       .  A
C612        H617   1.076       .  S
C613        C614   1.410       .  A
C614       Br615   1.921       .  S
C619        C620   1.408       .  A
C619        C624   1.417       .  A
C619        H626   1.083       .  S
C620        C621   1.418       .  A
C621        C622   1.409       .  A
C621       Br628   1.905       .  S
C622        C623   1.404       .  A
C622        H627   1.079       .  S
C623        C624   1.425       .  A
C624       Br625   1.919       .  S
C629        C630   1.409       .  A
C629        C634   1.404       .  A
C629        H636   1.059       .  S
C630        C631   1.414       .  A
C631        C632   1.418       .  A
C631       Br638   1.915       .  S
C632        C633   1.412       .  A
C632        H637   1.073       .  S
C633        C634   1.396       .  A
C634       Br635   1.906       .  S
C639        C640   1.406       .  A
C639        C644   1.383       .  A
C639        H646   1.078       .  S
C640        C641   1.398       .  A
C641        C642   1.372       .  A
C641       Br648   1.908       .  S
C642        C643   1.397       .  A
C642        H647   1.084       .  S
C643        C644   1.394       .  A
C644       Br645   1.917       .  S
C649        C650   1.413       .  A
C649        C654   1.401       .  A
C649        H656   1.078       .  S
C650        C651   1.402       .  A
C651        C652   1.373       .  A
C651       Br658   1.918       .  S
C652        C653   1.403       .  A
C652        H657   1.069       .  S
C653        C654   1.402       .  A
C659        C660   1.410       .  A
C659        C664   1.420       .  A
C659        H666   1.081       .  S
C660        C661   1.415       .  A
C661        C662   1.398       .  A
C661      Br1496   1.883       .  S
C662        C663   1.398       .  A
C662        H667   1.084       .  S
C663        C664   1.423       .  A
C664       Br665   1.915       .  S
Br668      C1489   1.883   1_545  S
C669        C670   1.410       .  A
C669        C674   1.414       .  A
C669        H676   1.075       .  S
C670        C671   1.407       .  A
C671        C672   1.408       .  A
C671       Br678   1.918       .  S
C672        C673   1.413       .  A
C672        H677   1.081       .  S
C673        C674   1.408       .  A
C674       Br675   1.910       .  S
C679        C680   1.405       .  A
C679        C684   1.405       .  A
C679        H686   1.082       .  S
C680        C681   1.419       .  A
C681        C682   1.421       .  A
C681       Br688   1.920       .  S
C682        C683   1.416       .  A
C682        H687   1.082       .  S
C683        C684   1.415       .  A
C684       Br685   1.898       .  S
C689        C690   1.409       .  A
C689        C694   1.419       .  A
C689        H696   1.073       .  S
C690        C691   1.418       .  A
C691        C692   1.405       .  A
C691       Br698   1.901       .  S
C692        C693   1.403       .  A
C692        H697   1.080       .  S
C693        C694   1.407       .  A
C694       Br695   1.898       .  S
C699        C700   1.414       .  A
C699        C704   1.417       .  A
C699        H706   1.082       .  S
C700        C701   1.411       .  A
C701        C702   1.416       .  A
C701       Br708   1.905       .  S
C702        C703   1.410       .  A
C702        H707   1.081       .  S
C703        C704   1.404       .  A
C704       Br705   1.900       .  S
C709        C710   1.412       .  A
C709        C714   1.420       .  A
C709        H716   1.074       .  S
C710        C711   1.411       .  A
C711        C712   1.397       .  A
C711      Br2374   1.886       .  S
C712        C713   1.404       .  A
C712        H717   1.084       .  S
C713        C714   1.416       .  A
C714       Br715   1.913       .  S
Br718      C2367   1.886   1_455  S
C719       C1548   1.412       .  A
C719        C724   1.420   1_565  A
C719       H1554   1.082       .  S
C720       C1547   1.412       .  A
C720        C721   1.420       .  A
C721       C1550   1.389       .  A
C721       Br728   1.884       .  S
C722       C1549   1.389   1_545  A
C722        C723   1.389       .  A
C722        H727   1.083       .  S
C723        C724   1.410       .  A
C724       Br725   1.893       .  S
H726       C1547   1.082       .  S
C729        C730   1.408       .  A
C729       C2390   1.426       .  A
C729        H736   1.079       .  S
C730       C2387   1.414       .  A
C731       C2386   1.414   1_455  A
C731        C732   1.426       .  A
C731       Br738   1.917       .  S
C732        C733   1.411       .  A
C732        H737   1.076       .  S
C733        C734   1.427       .  A
C734       C2385   1.426   1_455  A
C734      Br2391   1.907       .  S
Br735      C2390   1.907       .  S
C739        C740   1.409       .  A
C739        C744   1.416       .  A
C739        H746   1.083       .  S
C740        C741   1.418       .  A
C741        C742   1.415       .  A
C741       Br748   1.919       .  S
C742        C743   1.411       .  A
C742        H747   1.083       .  S
C743        C744   1.423       .  A
C744       Br745   1.920       .  S
C749        C750   1.414       .  A
C749        C754   1.381       .  A
C749        H756   1.082       .  S
C750        C751   1.398       .  A
C751        C752   1.367       .  A
C752        C753   1.381       .  A
C752        H757   1.081       .  S
C753        C754   1.392       .  A
C754       Br755   1.917       .  S
C759        C760   1.390       .  A
C759        C764   1.377       .  A
C759        H766   1.069       .  S
C760        C761   1.395       .  A
C761        C762   1.377       .  A
C761       Br768   1.920       .  S
C762        C763   1.402       .  A
C762        H767   1.080       .  S
C763        C764   1.400       .  A
C764       Br765   1.918       .  S
C769        C770   1.406       .  A
C769        C774   1.415       .  A
C769        H776   1.069       .  S
C770        C771   1.423       .  A
C771        C772   1.411       .  A
C771      Br1606   1.927   1_545  S
C772        C773   1.410       .  A
C772        H777   1.074       .  S
C773        C774   1.423       .  A
C774       Br775   1.924       .  S
Br778      C1599   1.927       .  S
C779        C780   1.404       .  A
C779        C784   1.403       .  A
C779        H786   1.082       .  S
C780        C781   1.414       .  A
C781        C782   1.405       .  A
C781       Br788   1.912       .  S
C782        C783   1.404       .  A
C782        H787   1.083       .  S
C783        C784   1.408       .  A
C784       Br785   1.904       .  S
C789        C790   1.411       .  A
C789        C794   1.413       .  A
C789        H796   1.080       .  S
C790        C791   1.409       .  A
C791        C792   1.410       .  A
C791       Br798   1.915       .  S
C792        C793   1.410       .  A
C792        H797   1.074       .  S
C793        C794   1.406       .  A
C794       Br795   1.888       .  S
C799        C800   1.408       .  A
C799       C1218   1.405   1_545  A
C799        H806   1.067       .  S
C800        C801   1.424       .  A
C801       C1216   1.421       .  A
C801       Br808   1.900       .  S
C802       C1215   1.421       .  A
C802        C803   1.405       .  A
C802        H807   1.083       .  S
C803        C804   1.403       .  A
C804       C1213   1.405   1_556  A
C804       Br805   1.906       .  S
C809        C810   1.401       .  A
C809       C2056   1.405       .  A
C809        H816   1.081       .  S
C810        C811   1.418       .  A
C811       C2054   1.404       .  A
C811       Br818   1.927       .  S
C812       C2053   1.404       .  A
C812        C813   1.408   1_554  A
C812        H817   1.078   1_554  S
C813        C814   1.417   1_556  A
C814       C2051   1.405       .  A
C814       Br815   1.897       .  S
C819        C824   1.411       .  A
C819        H826   1.080       .  S
C820        C821   1.423       .  A
C821       Br828   1.919       .  S
C822        C823   1.407       .  A
C822        H827   1.083       .  S
C823        C824   1.420       .  A
C824       Br825   1.923       .  S
O829        C837   1.282       .  A
O829       Co849   2.031       .  S
O830        C838   1.250       .  A
O830       Co850   1.921       .  S
O831        C839   1.272       .  A
O831       Co851   1.985       .  S
O832        C840   1.281       .  A
O832       Co852   2.084       .  S
O833        C839   1.284       .  A
O833       Co850   2.021       .  S
O834        C840   1.255       .  A
O834       Co849   2.005       .  S
O835        C838   1.286       .  A
O835       Co852   2.030       .  S
O836        C837   1.279       .  A
O836       Co851   1.998       .  S
C837       C1237   1.510       .  S
C838       C1174   1.418       .  S
C839       C1194   1.490       .  S
C840       C1204   1.512       .  S
O841        C854   1.298       .  A
O841       Co849   1.995       .  S
O842        C855   1.266       .  A
O842       Co850   2.026       .  S
O843       C1270   1.254       .  A
O843       Co851   1.932       .  S
O844        C857   1.305       .  A
O844       Co852   2.126       .  S
O845        C857   1.275       .  A
O845       Co850   1.921       .  S
O846       C1270   1.264       .  A
O846       Co849   1.966       .  S
O847        C854   1.288       .  A
O847       Co852   1.965       .  S
O848        C855   1.273       .  A
O848       Co851   2.033       .  S
Co849       O853   2.014       .  S
Co850       O853   1.914       .  S
Co851       O853   2.041       .  S
Co852       O853   2.055       .  S
C854       C1224   1.492       .  S
C855       C1214   1.535       .  S
C856       O1257   1.254       .  A
C856       O1260   1.264       .  A
C856       C1164   1.453       .  S
C857       C1187   1.524       .  S
O858        C866   1.271       .  A
O858       Co878   1.973       .  S
O859        C867   1.252       .  A
O859       Co879   2.006       .  S
O860        C868   1.267       .  A
O860       Co880   1.944       .  S
O861        C869   1.264       .  A
O861       Co881   1.956       .  S
O862        C868   1.302       .  A
O862       Co879   2.138       .  S
O863        C869   1.275       .  A
O863       Co878   2.024       .  S
O864        C867   1.258       .  A
O864       Co881   1.986       .  S
O865        C866   1.261       .  A
O865       Co880   1.954       .  S
C866       C1177   1.430       .  S
C867       C1107   1.512       .  S
C868       C1144   1.535       .  S
C869       C1137   1.499       .  S
O870        C883   1.277       .  A
O870       Co878   2.025       .  S
O871        C884   1.249       .  A
O871       Co879   1.911       .  S
O872        C885   1.263       .  A
O872       Co880   2.004       .  S
O873        C886   1.273       .  A
O873       Co881   1.983       .  S
O874        C886   1.248       .  A
O874       Co879   1.970       .  S
O875        C885   1.276       .  A
O875       Co878   2.008       .  S
O876        C883   1.272       .  A
O876       Co881   2.022       .  S
O877        C884   1.297       .  A
O877       Co880   2.137       .  S
Co878       O882   2.054       .  S
Co879       O882   2.013       .  S
Co880       O882   2.039       .  S
Co881       O882   2.054       .  S
C883       C1114   1.517       .  S
C884       C1127   1.500       .  S
C885       C1154   1.513       .  S
C886       C1167   1.409       .  S
O887        C895   1.277       .  A
O887       Co907   2.030       .  S
O888        C896   1.251       .  A
O888       Co908   1.999       .  S
O889        C897   1.280       .  A
O889       Co909   2.000       .  S
O890        C898   1.278       .  A
O890       Co910   1.932       .  S
O891        C897   1.291       .  A
O891       Co908   2.042       .  S
O892        C898   1.308       .  A
O892       Co907   2.111       .  S
O893        C896   1.234       .  A
O893       Co910   1.970       .  S
O894        C895   1.277       .  A
O894       Co909   1.997       .  S
C895       C1157   1.520       .  S
C896       C1064   1.468       .  S
C897       C1084   1.503       .  S
C898       C1094   1.519       .  S
O899        C912   1.265       .  A
O899       Co907   1.916       .  S
O900        C913   1.280       .  A
O900       Co908   2.045       .  S
O901        C914   1.260       .  A
O901       Co909   1.960       .  S
O902        C915   1.319       .  A
O902       Co910   2.141       .  S
O903        C915   1.287       .  A
O903       Co908   1.905       .  S
O904        C914   1.249       .  A
O904       Co907   1.962       .  S
O905        C912   1.305       .  A
O905       Co910   2.126       .  S
O906        C913   1.276       .  A
O906       Co909   2.037       .  S
Co907       O911   1.982       .  S
Co908       O911   1.906       .  S
Co909       O911   2.026       .  S
Co910       O911   2.044       .  S
C912       C1134   1.514       .  S
C913       C1147   1.548       .  S
C914       C1054   1.442       .  S
C915       C1077   1.512       .  S
O916        C924   1.280       .  A
O916       Co936   2.010       .  S
O917        C925   1.253       .  A
O917       Co937   1.936       .  S
O918        C926   1.282       .  A
O918       Co938   2.032       .  S
O919        C927   1.320       .  A
O919       Co939   2.150       .  S
O920        C926   1.268       .  A
O920       Co937   1.975       .  S
O921        C927   1.282       .  A
O921       Co936   1.915       .  S
O922        C925   1.287       .  A
O922       Co939   1.990       .  S
O923        C924   1.284       .  A
O923       Co938   2.026       .  S
C924       C1234   1.517       .  S
C925       C1057   1.423       .  S
C926       C1034   1.512       .  S
C927       C1044   1.519       .  S
O928        C941   1.305       .  A
O928       Co936   2.125       .  S
O929        C942   1.324       .  A
O929       Co937   2.170       .  S
O930       C1357   1.253       .  A
O930       Co938   1.951       .  S
O931        C944   1.309       .  A
O931       Co939   2.136       .  S
O932        C944   1.283       .  A
O932       Co937   1.921       .  S
O933       C1357   1.296       .  A
O933       Co936   2.065       .  S
O934        C941   1.273       .  A
O934       Co939   1.937       .  S
O935        C942   1.279       .  A
O935       Co938   1.876       .  S
Co936       O940   1.962       .  S
Co937       O940   1.932       .  S
Co938       O940   1.780       .  S
Co939       O940   1.995       .  S
C941       C1217   1.505       .  S
C942       C1227   1.515       .  S
C943       O1344   1.253       .  A
C943       O1347   1.296       .  A
C943       C1067   1.476   1_556  S
C944       C1024   1.507       .  S
O945        C953   1.270       .  A
O945       Co965   1.996       .  S
O946        C954   1.264   1_455  A
O946       Co966   1.954       .  S
O947        C955   1.296       .  A
O947      Co1381   2.134   1_554  S
O948        C956   1.274   1_545  A
O949        C955   1.258   1_545  A
O950        C956   1.263       .  A
O950      Co1379   2.003   1_554  S
O951       C2610   1.268       .  A
O951       Co968   1.957       .  S
O952        C953   1.267       .  A
O952      Co2623   1.997       .  S
C953       C1124   1.509       .  S
C954       O2607   1.268       .  A
C954       C1014   1.439       .  S
C955       C1074   1.519       .  S
C956       C1097   1.526       .  S
O957        C970   1.290       .  A
O958        C971   1.297       .  A
O958      Co1380   2.118       .  S
O959        C972   1.265   1_445  A
O959       Co967   1.956   1_545  S
O960        C973   1.265       .  A
O960      Co2624   2.005   1_455  S
O961        C973   1.254       .  A
O961       Co966   1.997       .  S
O962       C2628   1.261       .  A
O962       Co965   1.962       .  S
O963       C1384   1.262       .  A
O963       Co968   1.957   1_556  S
O964        C971   1.271       .  A
Co965      O1364   2.003       .  S
Co965      O2211   2.066       .  S
Co966      O1372   2.118   1_554  S
Co966       O969   2.014   1_454  S
Co967      O1361   2.134       .  S
Co967      O2608   1.997       .  S
Co968      O2616   2.005       .  S
Co968      O2625   2.040   1_554  S
O969      Co2207   2.066       .  S
O969      Co2624   2.040   1_556  S
C970       O1377   1.262       .  A
C970       C1104   1.519       .  S
C971       C1117   1.517       .  S
C972       O2618   1.261       .  A
C972       C1007   1.415       .  S
C973       C1087   1.509       .  S
O974        C982   1.298       .  A
O974       Co994   2.102       .  S
O975        C983   1.255       .  A
O975       Co995   1.971       .  S
O976        C984   1.264       .  A
O976       Co996   2.002       .  S
O977        C985   1.297   1_545  A
O978        C984   1.268   1_545  A
O979        C985   1.291       .  A
O979       Co994   2.001       .  S
O980       C2639   1.254       .  A
O980       Co997   1.938       .  S
O981        C982   1.284       .  A
O981      Co2652   1.954       .  S
C982       C1207   1.519       .  S
C983       O2636   1.254   1_455  A
C983       C1004   1.419       .  S
C984       C1027   1.507       .  S
C985       C1047   1.506       .  S
O986        C999   1.283       .  A
O987       C1000   1.277       .  A
O987       Co995   1.990       .  S
O988       C2657   1.240   1_455  A
O988       Co996   1.891       .  S
O989       C1002   1.283       .  A
O989      Co2653   2.043   1_455  S
O990       C1002   1.275       .  A
O990       Co995   1.986       .  S
O991       C1001   1.295       .  A
O991       Co994   2.054       .  S
O992        C999   1.260       .  A
O992       Co997   2.023       .  S
O993       C1000   1.288       .  A
Co994      O1826   2.058   1_565  S
Co995       O998   2.055       .  S
Co996      O2637   1.954       .  S
Co997      O2645   2.043       .  S
Co997      O2654   2.003       .  S
O998      Co1822   2.058   1_455  S
O998      Co2653   2.003   1_455  S
C999       C1184   1.530       .  S
C1000      C1197   1.488       .  S
C1001      O2644   1.240       .  A
C1001      C1017   1.432       .  S
C1002      C1037   1.510       .  S
C1003      C1832   1.377   1_565  A
C1003      C1008   1.365       .  A
C1003      H1010   1.086       .  S
C1004      C1831   1.377   1_455  A
C1004      C1005   1.403       .  A
C1005      C1006   1.368       .  A
C1005     Br1012   1.867       .  S
C1006      H1011   1.086       .  S
C1007      C2664   1.403       .  A
C1008      C2663   1.403       .  A
C1008     Br1009   1.867       .  S
C1013      C1014   1.401       .  A
C1013      C1018   1.376   1_655  A
C1013      H1020   1.080   1_655  S
C1014      C2671   1.407       .  A
C1015      C2670   1.407       .  A
C1015     Br1022   1.918       .  S
C1016      C1017   1.377   1_545  A
C1016      H1021   1.053       .  S
C1017      C1846   1.406       .  A
C1018      C1845   1.406   1_455  A
C1018     Br1019   1.924       .  S
C1023      C1024   1.411       .  A
C1023      C1028   1.417       .  A
C1023      H1030   1.081       .  S
C1024      C1025   1.399       .  A
C1025      C1026   1.410       .  A
C1025     Br1032   1.888       .  S
C1026      C1027   1.405       .  A
C1026      H1031   1.076       .  S
C1027      C1028   1.410       .  A
C1028     Br1029   1.921       .  S
C1033      C1034   1.408       .  A
C1033      C1038   1.417       .  A
C1033      H1040   1.083       .  S
C1034      C1035   1.418       .  A
C1035      C1036   1.409       .  A
C1035     Br1042   1.905       .  S
C1036      C1037   1.404       .  A
C1036      H1041   1.079       .  S
C1037      C1038   1.425       .  A
C1038     Br1039   1.919       .  S
C1043      C1044   1.409       .  A
C1043      C1048   1.404       .  A
C1043      H1050   1.059       .  S
C1044      C1045   1.414       .  A
C1045      C1046   1.418       .  A
C1045     Br1052   1.915       .  S
C1046      C1047   1.412       .  A
C1046      H1051   1.073       .  S
C1047      C1048   1.396       .  A
C1048     Br1049   1.906       .  S
C1053      C1054   1.406       .  A
C1053      C1058   1.383       .  A
C1053      H1060   1.078       .  S
C1054      C1055   1.398       .  A
C1055      C1056   1.372       .  A
C1055     Br1062   1.908       .  S
C1056      C1057   1.397       .  A
C1056      H1061   1.084       .  S
C1057      C1058   1.394       .  A
C1058     Br1059   1.917       .  S
C1063      C1064   1.413       .  A
C1063      C1068   1.401       .  A
C1063      H1070   1.078       .  S
C1064      C1065   1.402       .  A
C1065      C1066   1.373       .  A
C1065     Br1072   1.918       .  S
C1066      C1067   1.403       .  A
C1066      H1071   1.069       .  S
C1067      C1068   1.402       .  A
C1068     Br1483   1.909       .  S
Br1069     C1482   1.909       .  S
C1073      C1074   1.410       .  A
C1073      C1078   1.420       .  A
C1073      H1080   1.081       .  S
C1074      C1075   1.415       .  A
C1075      C1076   1.398       .  A
C1076      C1077   1.398       .  A
C1076      H1081   1.084       .  S
C1077      C1078   1.423       .  A
C1078     Br1079   1.915       .  S
C1083      C1084   1.410       .  A
C1083      C1088   1.414       .  A
C1083      H1090   1.075       .  S
C1084      C1085   1.407       .  A
C1085      C1086   1.408       .  A
C1085     Br1092   1.918       .  S
C1086      C1087   1.413       .  A
C1086      H1091   1.081       .  S
C1087      C1088   1.408       .  A
C1088     Br1089   1.910       .  S
C1093      C1094   1.405       .  A
C1093      C1098   1.405       .  A
C1093      H1100   1.082       .  S
C1094      C1095   1.419       .  A
C1095      C1096   1.421       .  A
C1095     Br1102   1.920       .  S
C1096      C1097   1.416       .  A
C1096      H1101   1.082       .  S
C1097      C1098   1.415       .  A
C1098     Br1099   1.898   1_565  S
C1103      C1104   1.409       .  A
C1103      C1108   1.419       .  A
C1103      H1110   1.073       .  S
C1104      C1105   1.418       .  A
C1105      C1106   1.405       .  A
C1105     Br1112   1.901       .  S
C1106      C1107   1.403       .  A
C1106      H1111   1.080       .  S
C1107      C1108   1.407       .  A
C1108     Br1109   1.898       .  S
C1113      C1114   1.414       .  A
C1113      C1118   1.417       .  A
C1113      H1120   1.082       .  S
C1114      C1115   1.411       .  A
C1115      C1116   1.416       .  A
C1115     Br1122   1.905       .  S
C1116      C1117   1.410       .  A
C1116      H1121   1.081       .  S
C1117      C1118   1.404       .  A
C1118     Br1119   1.900       .  S
C1123      C1124   1.412       .  A
C1123      C1128   1.420       .  A
C1123      H1130   1.074       .  S
C1124      C1125   1.411       .  A
C1125      C1126   1.397       .  A
C1125     Br2788   1.886       .  S
C1126      C1127   1.404       .  A
C1126      H1131   1.084       .  S
C1127      C1128   1.416       .  A
C1128     Br1129   1.913       .  S
Br1132     C2781   1.886   1_455  S
C1133      C1138   1.420       .  A
C1134      C1135   1.420       .  A
C1135     Br1142   1.884       .  S
C1136      C1137   1.389       .  A
C1136      H1141   1.083       .  S
C1137      C1138   1.410       .  A
C1138     Br1139   1.893       .  S
C1143      C1144   1.408       .  A
C1143      C2804   1.426       .  A
C1143      H1150   1.079       .  S
C1144      C2801   1.414       .  A
C1145      C2800   1.414   1_455  A
C1145      C1146   1.426       .  A
C1145     Br1152   1.917       .  S
C1146      C1147   1.411       .  A
C1146      H1151   1.076       .  S
C1147      C1148   1.427       .  A
C1148      C2799   1.426   1_455  A
C1148     Br2805   1.907       .  S
Br1149     C2804   1.907       .  S
C1153      C1154   1.409       .  A
C1153      C1158   1.416       .  A
C1153      H1160   1.083       .  S
C1154      C1155   1.418       .  A
C1155      C1156   1.415       .  A
C1155     Br1162   1.919       .  S
C1156      C1157   1.411       .  A
C1156      H1161   1.083       .  S
C1157      C1158   1.423       .  A
C1158     Br1159   1.920       .  S
C1163      C1164   1.414       .  A
C1163      C1168   1.381       .  A
C1163      H1170   1.082       .  S
C1164      C1165   1.398       .  A
C1165      C1166   1.367       .  A
C1165     Br1586   1.869       .  S
C1166      C1167   1.381       .  A
C1166      H1171   1.081       .  S
C1167      C1168   1.392       .  A
C1168     Br1169   1.917       .  S
Br1172     C1579   1.869       .  S
C1173      C1174   1.390       .  A
C1173      C1178   1.377       .  A
C1173      H1180   1.069       .  S
C1174      C1175   1.395       .  A
C1175      C1176   1.377       .  A
C1175     Br1182   1.920       .  S
C1176      C1177   1.402       .  A
C1176      H1181   1.080       .  S
C1177      C1178   1.400       .  A
C1178     Br1179   1.918       .  S
C1183      C1184   1.406       .  A
C1183      C1188   1.415       .  A
C1183      H1190   1.069       .  S
C1184      C1185   1.423       .  A
C1185      C1186   1.411       .  A
C1186      C1187   1.410       .  A
C1186      H1191   1.074       .  S
C1187      C1188   1.423       .  A
C1188     Br1189   1.924       .  S
C1193      C1194   1.404       .  A
C1193      C1198   1.403       .  A
C1193      H1200   1.082       .  S
C1194      C1195   1.414       .  A
C1195      C1196   1.405       .  A
C1195     Br1202   1.912       .  S
C1196      C1197   1.404       .  A
C1196      H1201   1.083       .  S
C1197      C1198   1.408       .  A
C1198     Br1199   1.904       .  S
C1203      C1204   1.411       .  A
C1203      C1208   1.413       .  A
C1203      H1210   1.080       .  S
C1204      C1205   1.409       .  A
C1205      C1206   1.410       .  A
C1205     Br1212   1.915       .  S
C1206      C1207   1.410       .  A
C1206      H1211   1.074       .  S
C1207      C1208   1.406       .  A
C1208     Br1209   1.888       .  S
C1213      C1214   1.408       .  A
C1213      H1220   1.067       .  S
C1214      C1215   1.424   1_554  A
C1215     Br1222   1.900   1_556  S
C1216      C1217   1.405   1_545  A
C1216      H1221   1.083       .  S
C1217      C1218   1.403       .  A
C1218     Br1219   1.906       .  S
C1223      C1224   1.401       .  A
C1223      C3298   1.405       .  A
C1223      H1230   1.081       .  S
C1224      C1225   1.418       .  A
C1225      C3296   1.404       .  A
C1225     Br1232   1.927       .  S
C1226      C3295   1.404       .  A
C1226      C1227   1.408       .  A
C1226      H1231   1.078       .  S
C1227      C1228   1.417       .  A
C1228      C3293   1.405       .  A
C1228     Br1229   1.897       .  S
C1233      C1648   1.408       .  A
C1233      C1238   1.411   1_556  A
C1233      H1240   1.080       .  S
C1234      C1647   1.408       .  A
C1234      C1235   1.423       .  A
C1235      C1650   1.410       .  A
C1235     Br1242   1.919       .  S
C1236      C1649   1.410   1_554  A
C1236      C1237   1.407       .  A
C1236      H1241   1.083       .  S
C1237      C1238   1.420       .  A
C1238     Br1239   1.923       .  S
O1243      C1251   1.282       .  A
O1243     Co1263   2.031       .  S
O1244      C1252   1.250       .  A
O1244     Co1264   1.921       .  S
O1245      C1253   1.272       .  A
O1245     Co1265   1.985       .  S
O1246      C1254   1.281       .  A
O1246     Co1266   2.084       .  S
O1247      C1253   1.284       .  A
O1247     Co1264   2.021       .  S
O1248      C1254   1.255       .  A
O1248     Co1263   2.005       .  S
O1249      C1252   1.286       .  A
O1249     Co1266   2.030       .  S
O1250      C1251   1.279       .  A
O1250     Co1265   1.998       .  S
C1251      C1651   1.510       .  S
C1252      C1588   1.418       .  S
C1253      C1608   1.490       .  S
C1254      C1618   1.512       .  S
O1255      C1268   1.298       .  A
O1255     Co1263   1.995       .  S
O1256      C1269   1.266       .  A
O1256     Co1264   2.026       .  S
O1257     Co1265   1.932       .  S
O1258      C1271   1.305       .  A
O1258     Co1266   2.126       .  S
O1259      C1271   1.275       .  A
O1259     Co1264   1.921       .  S
O1260     Co1263   1.966       .  S
O1261      C1268   1.288       .  A
O1261     Co1266   1.965       .  S
O1262      C1269   1.273       .  A
O1262     Co1265   2.033       .  S
Co1263     O1267   2.014       .  S
Co1264     O1267   1.914       .  S
Co1265     O1267   2.041       .  S
Co1266     O1267   2.055       .  S
C1268      C1638   1.492       .  S
C1269      C1628   1.535       .  S
C1270      C1578   1.453   1_554  S
C1271      C1601   1.524       .  S
O1272      C1280   1.271       .  A
O1272     Co1292   1.973       .  S
O1273      C1281   1.252       .  A
O1273     Co1293   2.006       .  S
O1274      C1282   1.267       .  A
O1274     Co1294   1.944       .  S
O1275      C1283   1.264       .  A
O1275     Co1295   1.956       .  S
O1276      C1282   1.302       .  A
O1276     Co1293   2.138       .  S
O1277      C1283   1.275       .  A
O1277     Co1292   2.024       .  S
O1278      C1281   1.258       .  A
O1278     Co1295   1.986       .  S
O1279      C1280   1.261       .  A
O1279     Co1294   1.954       .  S
C1280      C1591   1.430       .  S
C1281      C1521   1.512       .  S
C1282      C1558   1.535       .  S
C1283      C1551   1.499       .  S
O1284      C1297   1.277       .  A
O1284     Co1292   2.025       .  S
O1285      C1298   1.249       .  A
O1285     Co1293   1.911       .  S
O1286      C1299   1.263       .  A
O1286     Co1294   2.004       .  S
O1287      C1300   1.273       .  A
O1287     Co1295   1.983       .  S
O1288      C1300   1.248       .  A
O1288     Co1293   1.970       .  S
O1289      C1299   1.276       .  A
O1289     Co1292   2.008       .  S
O1290      C1297   1.272       .  A
O1290     Co1295   2.022       .  S
O1291      C1298   1.297       .  A
O1291     Co1294   2.137       .  S
Co1292     O1296   2.054       .  S
Co1293     O1296   2.013       .  S
Co1294     O1296   2.039       .  S
Co1295     O1296   2.054       .  S
C1297      C1528   1.517       .  S
C1298      C1541   1.500       .  S
C1299      C1568   1.513       .  S
C1300      C1581   1.409       .  S
O1301      C1309   1.277       .  A
O1301     Co1321   2.030       .  S
O1302      C1310   1.251       .  A
O1302     Co1322   1.999       .  S
O1303      C1311   1.280       .  A
O1303     Co1323   2.000       .  S
O1304      C1312   1.278       .  A
O1304     Co1324   1.932       .  S
O1305      C1311   1.291       .  A
O1305     Co1322   2.042       .  S
O1306      C1312   1.308       .  A
O1306     Co1321   2.111       .  S
O1307      C1310   1.234       .  A
O1307     Co1324   1.970       .  S
O1308      C1309   1.277       .  A
O1308     Co1323   1.997       .  S
C1309      C1571   1.520       .  S
C1310      C1478   1.468       .  S
C1311      C1498   1.503       .  S
C1312      C1508   1.519       .  S
O1313      C1326   1.265       .  A
O1313     Co1321   1.916       .  S
O1314      C1327   1.280       .  A
O1314     Co1322   2.045       .  S
O1315      C1328   1.260       .  A
O1315     Co1323   1.960       .  S
O1316      C1329   1.319       .  A
O1316     Co1324   2.141       .  S
O1317      C1329   1.287       .  A
O1317     Co1322   1.905       .  S
O1318      C1328   1.249       .  A
O1318     Co1321   1.962       .  S
O1319      C1326   1.305       .  A
O1319     Co1324   2.126       .  S
O1320      C1327   1.276       .  A
O1320     Co1323   2.037       .  S
Co1321     O1325   1.982       .  S
Co1322     O1325   1.906       .  S
Co1323     O1325   2.026       .  S
Co1324     O1325   2.044       .  S
C1326      C1548   1.514       .  S
C1327      C1561   1.548       .  S
C1328      C1468   1.442       .  S
C1329      C1491   1.512       .  S
O1330      C1338   1.280       .  A
O1330     Co1350   2.010       .  S
O1331      C1339   1.253       .  A
O1331     Co1351   1.936       .  S
O1332      C1340   1.282       .  A
O1332     Co1352   2.032       .  S
O1333      C1341   1.320       .  A
O1333     Co1353   2.150       .  S
O1334      C1340   1.268       .  A
O1334     Co1351   1.975       .  S
O1335      C1341   1.282       .  A
O1335     Co1350   1.915       .  S
O1336      C1339   1.287       .  A
O1336     Co1353   1.990       .  S
O1337      C1338   1.284       .  A
O1337     Co1352   2.026       .  S
C1338      C1648   1.517       .  S
C1339      C1471   1.423       .  S
C1340      C1448   1.512       .  S
C1341      C1458   1.519       .  S
O1342      C1355   1.305       .  A
O1342     Co1350   2.125       .  S
O1343      C1356   1.324       .  A
O1343     Co1351   2.170       .  S
O1344     Co1352   1.951       .  S
O1345      C1358   1.309       .  A
O1345     Co1353   2.136       .  S
O1346      C1358   1.283       .  A
O1346     Co1351   1.921       .  S
O1347     Co1350   2.065       .  S
O1348      C1355   1.273       .  A
O1348     Co1353   1.937       .  S
O1349      C1356   1.279       .  A
O1349     Co1352   1.876       .  S
Co1350     O1354   1.962       .  S
Co1351     O1354   1.932       .  S
Co1352     O1354   1.780       .  S
Co1353     O1354   1.995       .  S
C1355      C1631   1.505       .  S
C1356      C1641   1.515       .  S
C1357      C1481   1.476       .  S
C1358      C1438   1.507       .  S
O1359      C1367   1.270       .  A
O1359     Co1379   1.996       .  S
O1360      C1368   1.264   1_455  A
O1360     Co1380   1.954       .  S
O1361      C1369   1.296       .  A
O1362      C1370   1.274   1_545  A
O1363      C1369   1.258   1_545  A
O1364      C1370   1.263       .  A
O1365      C3024   1.268       .  A
O1365     Co1382   1.957       .  S
O1366      C1367   1.267       .  A
O1366     Co3037   1.997       .  S
C1367      C1538   1.509       .  S
C1368      O3021   1.268       .  A
C1368      C1428   1.439       .  S
C1369      C1488   1.519       .  S
C1370      C1511   1.526       .  S
O1371      C1384   1.290       .  A
O1372      C1385   1.297       .  A
O1373      C1386   1.265   1_445  A
O1373     Co1381   1.956   1_545  S
O1374      C1387   1.265       .  A
O1374     Co3038   2.005   1_455  S
O1375      C1387   1.254       .  A
O1375     Co1380   1.997       .  S
O1376      C3042   1.261       .  A
O1376     Co1379   1.962       .  S
O1377     Co1382   1.957       .  S
O1378      C1385   1.271       .  A
Co1379     O1797   2.066       .  S
Co1380     O1383   2.014   1_455  S
Co1381     O3022   1.997       .  S
Co1382     O3030   2.005       .  S
Co1382     O3039   2.040       .  S
O1383     Co1793   2.066       .  S
O1383     Co3038   2.040       .  S
C1384      C1518   1.519       .  S
C1385      C1531   1.517       .  S
C1386      O3032   1.261       .  A
C1386      C1421   1.415       .  S
C1387      C1501   1.509       .  S
O1388      C1396   1.298       .  A
O1388     Co1408   2.102       .  S
O1389      C1397   1.255       .  A
O1389     Co1409   1.971       .  S
O1390      C1398   1.264       .  A
O1390     Co1410   2.002       .  S
O1391      C1399   1.297   1_545  A
O1392      C1398   1.268   1_545  A
O1393      C1399   1.291       .  A
O1393     Co1408   2.001       .  S
O1394      C3053   1.254       .  A
O1394     Co1411   1.938       .  S
O1395      C1396   1.284       .  A
O1395     Co3066   1.954       .  S
C1396      C1621   1.519       .  S
C1397      O3050   1.254   1_455  A
C1397      C1418   1.419       .  S
C1398      C1441   1.507       .  S
C1399      C1461   1.506       .  S
O1400      C1413   1.283       .  A
O1401      C1414   1.277       .  A
O1401     Co1409   1.990       .  S
O1402      C3071   1.240   1_455  A
O1402     Co1410   1.891       .  S
O1403      C1416   1.283       .  A
O1403     Co3067   2.043   1_455  S
O1404      C1416   1.275       .  A
O1404     Co1409   1.986       .  S
O1405      C1415   1.295       .  A
O1405     Co1408   2.054       .  S
O1406      C1413   1.260       .  A
O1406     Co1411   2.023       .  S
O1407      C1414   1.288       .  A
Co1408     O2240   2.058   1_565  S
Co1409     O1412   2.055       .  S
Co1410     O3051   1.954       .  S
Co1411     O3059   2.043       .  S
Co1411     O3068   2.003       .  S
O1412     Co2236   2.058   1_455  S
O1412     Co3067   2.003   1_455  S
C1413      C1598   1.530       .  S
C1414      C1611   1.488       .  S
C1415      O3058   1.240       .  A
C1415      C1431   1.432       .  S
C1416      C1451   1.510       .  S
C1417      C2246   1.377   1_565  A
C1417      C1422   1.365       .  A
C1417      H1424   1.086       .  S
C1418      C2245   1.377   1_455  A
C1418      C1419   1.403       .  A
C1419      C1420   1.368       .  A
C1419     Br1426   1.867       .  S
C1420      H1425   1.086       .  S
C1421      C3078   1.403       .  A
C1422      C3077   1.403       .  A
C1422     Br1423   1.867       .  S
C1427      C1428   1.401       .  A
C1427      C1432   1.376   1_655  A
C1427      H1434   1.080   1_655  S
C1428      C3085   1.407       .  A
C1429      C3084   1.407       .  A
C1429     Br1436   1.918       .  S
C1430      C1431   1.377   1_545  A
C1430      H1435   1.053       .  S
C1431      C2260   1.406       .  A
C1432      C2259   1.406   1_455  A
C1432     Br1433   1.924       .  S
C1437      C1438   1.411       .  A
C1437      C1442   1.417       .  A
C1437      H1444   1.081       .  S
C1438      C1439   1.399       .  A
C1439      C1440   1.410       .  A
C1439     Br1446   1.888       .  S
C1440      C1441   1.405       .  A
C1440      H1445   1.076       .  S
C1441      C1442   1.410       .  A
C1442     Br1443   1.921       .  S
C1447      C1448   1.408       .  A
C1447      C1452   1.417       .  A
C1447      H1454   1.083       .  S
C1448      C1449   1.418       .  A
C1449      C1450   1.409       .  A
C1449     Br1456   1.905       .  S
C1450      C1451   1.404       .  A
C1450      H1455   1.079       .  S
C1451      C1452   1.425       .  A
C1452     Br1453   1.919       .  S
C1457      C1458   1.409       .  A
C1457      C1462   1.404       .  A
C1457      H1464   1.059       .  S
C1458      C1459   1.414       .  A
C1459      C1460   1.418       .  A
C1459     Br1466   1.915       .  S
C1460      C1461   1.412       .  A
C1460      H1465   1.073       .  S
C1461      C1462   1.396       .  A
C1462     Br1463   1.906       .  S
C1467      C1468   1.406       .  A
C1467      C1472   1.383       .  A
C1467      H1474   1.078       .  S
C1468      C1469   1.398       .  A
C1469      C1470   1.372       .  A
C1469     Br1476   1.908       .  S
C1470      C1471   1.397       .  A
C1470      H1475   1.084       .  S
C1471      C1472   1.394       .  A
C1472     Br1473   1.917       .  S
C1477      C1478   1.413       .  A
C1477      C1482   1.401       .  A
C1477      H1484   1.078       .  S
C1478      C1479   1.402       .  A
C1479      C1480   1.373       .  A
C1479     Br1486   1.918       .  S
C1480      C1481   1.403       .  A
C1480      H1485   1.069       .  S
C1481      C1482   1.402       .  A
C1487      C1488   1.410       .  A
C1487      C1492   1.420       .  A
C1487      H1494   1.081       .  S
C1488      C1489   1.415       .  A
C1489      C1490   1.398       .  A
C1490      C1491   1.398       .  A
C1490      H1495   1.084       .  S
C1491      C1492   1.423       .  A
C1492     Br1493   1.915       .  S
C1497      C1498   1.410       .  A
C1497      C1502   1.414       .  A
C1497      H1504   1.075       .  S
C1498      C1499   1.407       .  A
C1499      C1500   1.408       .  A
C1499     Br1506   1.918       .  S
C1500      C1501   1.413       .  A
C1500      H1505   1.081       .  S
C1501      C1502   1.408       .  A
C1502     Br1503   1.910       .  S
C1507      C1508   1.405       .  A
C1507      C1512   1.405       .  A
C1507      H1514   1.082       .  S
C1508      C1509   1.419       .  A
C1509      C1510   1.421       .  A
C1509     Br1516   1.920       .  S
C1510      C1511   1.416       .  A
C1510      H1515   1.082       .  S
C1511      C1512   1.415       .  A
C1512     Br1513   1.898   1_565  S
C1517      C1518   1.409       .  A
C1517      C1522   1.419       .  A
C1517      H1524   1.073       .  S
C1518      C1519   1.418       .  A
C1519      C1520   1.405       .  A
C1519     Br1526   1.901       .  S
C1520      C1521   1.403       .  A
C1520      H1525   1.080       .  S
C1521      C1522   1.407       .  A
C1522     Br1523   1.898       .  S
C1527      C1528   1.414       .  A
C1527      C1532   1.417       .  A
C1527      H1534   1.082       .  S
C1528      C1529   1.411       .  A
C1529      C1530   1.416       .  A
C1529     Br1536   1.905       .  S
C1530      C1531   1.410       .  A
C1530      H1535   1.081       .  S
C1531      C1532   1.404       .  A
C1532     Br1533   1.900       .  S
C1537      C1538   1.412       .  A
C1537      C1542   1.420       .  A
C1537      H1544   1.074       .  S
C1538      C1539   1.411       .  A
C1539      C1540   1.397       .  A
C1539     Br3202   1.886       .  S
C1540      C1541   1.404       .  A
C1540      H1545   1.084       .  S
C1541      C1542   1.416       .  A
C1542     Br1543   1.913       .  S
Br1546     C3195   1.886   1_455  S
C1547      C1552   1.420       .  A
C1548      C1549   1.420       .  A
C1549     Br1556   1.884       .  S
C1550      C1551   1.389       .  A
C1550      H1555   1.083       .  S
C1551      C1552   1.410       .  A
C1552     Br1553   1.893       .  S
C1557      C1558   1.408       .  A
C1557      C3218   1.426       .  A
C1557      H1564   1.079       .  S
C1558      C3215   1.414       .  A
C1559      C3214   1.414   1_455  A
C1559      C1560   1.426       .  A
C1559     Br1566   1.917       .  S
C1560      C1561   1.411       .  A
C1560      H1565   1.076       .  S
C1561      C1562   1.427       .  A
C1562      C3213   1.426   1_455  A
C1562     Br3219   1.907       .  S
Br1563     C3218   1.907       .  S
C1567      C1568   1.409       .  A
C1567      C1572   1.416       .  A
C1567      H1574   1.083       .  S
C1568      C1569   1.418       .  A
C1569      C1570   1.415       .  A
C1569     Br1576   1.919       .  S
C1570      C1571   1.411       .  A
C1570      H1575   1.083       .  S
C1571      C1572   1.423       .  A
C1572     Br1573   1.920       .  S
C1577      C1578   1.414       .  A
C1577      C1582   1.381       .  A
C1577      H1584   1.082       .  S
C1578      C1579   1.398       .  A
C1579      C1580   1.367       .  A
C1580      C1581   1.381       .  A
C1580      H1585   1.081       .  S
C1581      C1582   1.392       .  A
C1582     Br1583   1.917       .  S
C1587      C1588   1.390       .  A
C1587      C1592   1.377       .  A
C1587      H1594   1.069       .  S
C1588      C1589   1.395       .  A
C1589      C1590   1.377       .  A
C1589     Br1596   1.920       .  S
C1590      C1591   1.402       .  A
C1590      H1595   1.080       .  S
C1591      C1592   1.400       .  A
C1592     Br1593   1.918       .  S
C1597      C1598   1.406       .  A
C1597      C1602   1.415       .  A
C1597      H1604   1.069       .  S
C1598      C1599   1.423       .  A
C1599      C1600   1.411       .  A
C1600      C1601   1.410       .  A
C1600      H1605   1.074       .  S
C1601      C1602   1.423       .  A
C1602     Br1603   1.924       .  S
C1607      C1608   1.404       .  A
C1607      C1612   1.403       .  A
C1607      H1614   1.082       .  S
C1608      C1609   1.414       .  A
C1609      C1610   1.405       .  A
C1609     Br1616   1.912       .  S
C1610      C1611   1.404       .  A
C1610      H1615   1.083       .  S
C1611      C1612   1.408       .  A
C1612     Br1613   1.904       .  S
C1617      C1618   1.411       .  A
C1617      C1622   1.413       .  A
C1617      H1624   1.080       .  S
C1618      C1619   1.409       .  A
C1619      C1620   1.410       .  A
C1619     Br1626   1.915       .  S
C1620      C1621   1.410       .  A
C1620      H1625   1.074       .  S
C1621      C1622   1.406       .  A
C1622     Br1623   1.888       .  S
C1627      C1628   1.408       .  A
C1627      H1634   1.067       .  S
C1628      C1629   1.424       .  A
C1629     Br1636   1.900       .  S
C1630      C1631   1.405   1_545  A
C1630      H1635   1.083       .  S
C1631      C1632   1.403       .  A
C1632     Br1633   1.906       .  S
C1637      C1638   1.401       .  A
C1637      C2884   1.405       .  A
C1637      H1644   1.081       .  S
C1638      C1639   1.418       .  A
C1639      C2882   1.404       .  A
C1639     Br1646   1.927       .  S
C1640      C2881   1.404       .  A
C1640      C1641   1.408   1_554  A
C1640      H1645   1.078   1_554  S
C1641      C1642   1.417   1_556  A
C1642      C2879   1.405       .  A
C1642     Br1643   1.897       .  S
C1647      C1652   1.411       .  A
C1647      H1654   1.080       .  S
C1648      C1649   1.423       .  A
C1649     Br1656   1.919       .  S
C1650      C1651   1.407       .  A
C1650      H1655   1.083       .  S
C1651      C1652   1.420       .  A
C1652     Br1653   1.923       .  S
O1657      C1665   1.282       .  A
O1657     Co1677   2.031       .  S
O1658      C1666   1.250       .  A
O1658     Co1678   1.921       .  S
O1659      C1667   1.272       .  A
O1659     Co1679   1.985       .  S
O1660      C1668   1.281       .  A
O1660     Co1680   2.084       .  S
O1661      C1667   1.284       .  A
O1661     Co1678   2.021       .  S
O1662      C1668   1.255       .  A
O1662     Co1677   2.005       .  S
O1663      C1666   1.286       .  A
O1663     Co1680   2.030       .  S
O1664      C1665   1.279       .  A
O1664     Co1679   1.998       .  S
C1665      C2065   1.510       .  S
C1666      C2002   1.418       .  S
C1667      C2022   1.490       .  S
C1668      C2032   1.512       .  S
O1669      C1682   1.298       .  A
O1669     Co1677   1.995       .  S
O1670      C1683   1.266       .  A
O1670     Co1678   2.026       .  S
O1671      C2098   1.254       .  A
O1671     Co1679   1.932       .  S
O1672      C1685   1.305       .  A
O1672     Co1680   2.126       .  S
O1673      C1685   1.275       .  A
O1673     Co1678   1.921       .  S
O1674      C2098   1.264       .  A
O1674     Co1677   1.966       .  S
O1675      C1682   1.288       .  A
O1675     Co1680   1.965       .  S
O1676      C1683   1.273       .  A
O1676     Co1679   2.033       .  S
Co1677     O1681   2.014       .  S
Co1678     O1681   1.914       .  S
Co1679     O1681   2.041       .  S
Co1680     O1681   2.055       .  S
C1682      C2052   1.492       .  S
C1683      C2042   1.535       .  S
C1684      O2085   1.254       .  A
C1684      O2088   1.264       .  A
C1684      C1992   1.453       .  S
C1685      C2015   1.524       .  S
O1686      C1694   1.271       .  A
O1686     Co1706   1.973       .  S
O1687      C1695   1.252       .  A
O1687     Co1707   2.006       .  S
O1688      C1696   1.267       .  A
O1688     Co1708   1.944       .  S
O1689      C1697   1.264       .  A
O1689     Co1709   1.956       .  S
O1690      C1696   1.302       .  A
O1690     Co1707   2.138       .  S
O1691      C1697   1.275       .  A
O1691     Co1706   2.024       .  S
O1692      C1695   1.258       .  A
O1692     Co1709   1.986       .  S
O1693      C1694   1.261       .  A
O1693     Co1708   1.954       .  S
C1694      C2005   1.430       .  S
C1695      C1935   1.512       .  S
C1696      C1972   1.535       .  S
C1697      C1965   1.499       .  S
O1698      C1711   1.277       .  A
O1698     Co1706   2.025       .  S
O1699      C1712   1.249       .  A
O1699     Co1707   1.911       .  S
O1700      C1713   1.263       .  A
O1700     Co1708   2.004       .  S
O1701      C1714   1.273       .  A
O1701     Co1709   1.983       .  S
O1702      C1714   1.248       .  A
O1702     Co1707   1.970       .  S
O1703      C1713   1.276       .  A
O1703     Co1706   2.008       .  S
O1704      C1711   1.272       .  A
O1704     Co1709   2.022       .  S
O1705      C1712   1.297       .  A
O1705     Co1708   2.137       .  S
Co1706     O1710   2.054       .  S
Co1707     O1710   2.013       .  S
Co1708     O1710   2.039       .  S
Co1709     O1710   2.054       .  S
C1711      C1942   1.517       .  S
C1712      C1955   1.500       .  S
C1713      C1982   1.513       .  S
C1714      C1995   1.409       .  S
O1715      C1723   1.277       .  A
O1715     Co1735   2.030       .  S
O1716      C1724   1.251       .  A
O1716     Co1736   1.999       .  S
O1717      C1725   1.280       .  A
O1717     Co1737   2.000       .  S
O1718      C1726   1.278       .  A
O1718     Co1738   1.932       .  S
O1719      C1725   1.291       .  A
O1719     Co1736   2.042       .  S
O1720      C1726   1.308       .  A
O1720     Co1735   2.111       .  S
O1721      C1724   1.234       .  A
O1721     Co1738   1.970       .  S
O1722      C1723   1.277       .  A
O1722     Co1737   1.997       .  S
C1723      C1985   1.520       .  S
C1724      C1892   1.468       .  S
C1725      C1912   1.503       .  S
C1726      C1922   1.519       .  S
O1727      C1740   1.265       .  A
O1727     Co1735   1.916       .  S
O1728      C1741   1.280       .  A
O1728     Co1736   2.045       .  S
O1729      C1742   1.260       .  A
O1729     Co1737   1.960       .  S
O1730      C1743   1.319       .  A
O1730     Co1738   2.141       .  S
O1731      C1743   1.287       .  A
O1731     Co1736   1.905       .  S
O1732      C1742   1.249       .  A
O1732     Co1735   1.962       .  S
O1733      C1740   1.305       .  A
O1733     Co1738   2.126       .  S
O1734      C1741   1.276       .  A
O1734     Co1737   2.037       .  S
Co1735     O1739   1.982       .  S
Co1736     O1739   1.906       .  S
Co1737     O1739   2.026       .  S
Co1738     O1739   2.044       .  S
C1740      C1962   1.514       .  S
C1741      C1975   1.548       .  S
C1742      C1882   1.442       .  S
C1743      C1905   1.512       .  S
O1744      C1752   1.280       .  A
O1744     Co1764   2.010       .  S
O1745      C1753   1.253       .  A
O1745     Co1765   1.936       .  S
O1746      C1754   1.282       .  A
O1746     Co1766   2.032       .  S
O1747      C1755   1.320       .  A
O1747     Co1767   2.150       .  S
O1748      C1754   1.268       .  A
O1748     Co1765   1.975       .  S
O1749      C1755   1.282       .  A
O1749     Co1764   1.915       .  S
O1750      C1753   1.287       .  A
O1750     Co1767   1.990       .  S
O1751      C1752   1.284       .  A
O1751     Co1766   2.026       .  S
C1752      C2062   1.517       .  S
C1753      C1885   1.423       .  S
C1754      C1862   1.512       .  S
C1755      C1872   1.519       .  S
O1756      C1769   1.305       .  A
O1756     Co1764   2.125       .  S
O1757      C1770   1.324       .  A
O1757     Co1765   2.170       .  S
O1758      C2185   1.253       .  A
O1758     Co1766   1.951       .  S
O1759      C1772   1.309       .  A
O1759     Co1767   2.136       .  S
O1760      C1772   1.283       .  A
O1760     Co1765   1.921       .  S
O1761      C2185   1.296       .  A
O1761     Co1764   2.065       .  S
O1762      C1769   1.273       .  A
O1762     Co1767   1.937       .  S
O1763      C1770   1.279       .  A
O1763     Co1766   1.876       .  S
Co1764     O1768   1.962       .  S
Co1765     O1768   1.932       .  S
Co1766     O1768   1.780       .  S
Co1767     O1768   1.995       .  S
C1769      C2045   1.505       .  S
C1770      C2055   1.515       .  S
C1771      O2172   1.253       .  A
C1771      O2175   1.296       .  A
C1771      C1895   1.476   1_556  S
C1772      C1852   1.507       .  S
O1773      C1781   1.270       .  A
O1773     Co1793   1.996       .  S
O1774      C1782   1.264       .  A
O1774     Co1794   1.954   1_565  S
O1775      C1783   1.296       .  A
O1775     Co2209   2.134   1_554  S
O1776      C1784   1.274       .  A
O1776     Co2624   2.032       .  S
O1777      C1783   1.258       .  A
O1777     Co2622   1.932       .  S
O1778      C1784   1.263       .  A
O1778     Co2207   2.003   1_554  S
O1779     Co1796   1.957       .  S
O1780      C1781   1.267   1_455  A
C1781      C1952   1.509       .  S
C1782      C1842   1.439       .  S
C1783      C1902   1.519       .  S
C1784      C1925   1.526       .  S
O1785      C1798   1.290   1_565  A
O1785     Co2621   2.080       .  S
O1786      C1799   1.297       .  A
O1786     Co2208   2.118       .  S
O1787      C1800   1.265       .  A
O1787     Co1795   1.956       .  S
O1788      C1801   1.265       .  A
O1789      C1801   1.254       .  A
O1789     Co1794   1.997       .  S
O1790     Co1793   1.962       .  S
O1791      C2212   1.262       .  A
O1791     Co1796   1.957   1_556  S
O1792      C1799   1.271   1_565  A
O1792     Co2623   1.942       .  S
Co1793     O2192   2.003       .  S
Co1793     O2613   2.080       .  S
Co1794     O2605   1.932       .  S
Co1794     O2200   2.118   1_554  S
Co1794     O1797   2.014   1_544  S
Co1795     O2189   2.134       .  S
Co1795     O2620   1.942       .  S
Co1795     O3039   2.016       .  S
Co1796     O2604   2.032       .  S
O1797     Co3037   2.016       .  S
C1798      O2205   1.262       .  A
C1798      C1932   1.519       .  S
C1799      C1945   1.517       .  S
C1800      C1835   1.415       .  S
C1801      C1915   1.509       .  S
O1802      C1810   1.298       .  A
O1802     Co1822   2.102       .  S
O1803      C1811   1.255       .  A
O1803     Co1823   1.971       .  S
O1804      C1812   1.264       .  A
O1804     Co1824   2.002       .  S
O1805      C1813   1.297       .  A
O1805     Co2653   1.999       .  S
O1806      C1812   1.268       .  A
O1806     Co2651   2.014       .  S
O1807      C1813   1.291       .  A
O1807     Co1822   2.001       .  S
O1808     Co1825   1.938       .  S
O1809      C1810   1.284   1_455  A
C1810      C2035   1.519       .  S
C1811      C1832   1.419       .  S
C1812      C1855   1.507       .  S
C1813      C1875   1.506       .  S
O1814      C1827   1.283   1_565  A
O1814     Co2650   2.083       .  S
O1815      C1828   1.277       .  A
O1815     Co1823   1.990       .  S
O1816     Co1824   1.891       .  S
O1817      C1830   1.283       .  A
O1818      C1830   1.275       .  A
O1818     Co1823   1.986       .  S
O1819      C1829   1.295       .  A
O1819     Co1822   2.054       .  S
O1820      C1827   1.260       .  A
O1820     Co1825   2.023       .  S
O1821      C1828   1.288       .  A
O1821     Co2652   2.027   1_545  S
Co1822     O2642   2.083       .  S
Co1823     O2634   2.014       .  S
Co1823     O1826   2.055       .  S
Co1824     O2649   2.027       .  S
Co1824     O2654   1.934       .  S
Co1825     O2633   1.999       .  S
O1826     Co2652   1.934   1_545  S
C1827      C2012   1.530       .  S
C1828      C2025   1.488       .  S
C1829      C1845   1.432       .  S
C1830      C1865   1.510       .  S
C1831      C1836   1.365       .  A
C1831      H1838   1.086       .  S
C1832      C1833   1.403       .  A
C1833      C1834   1.368       .  A
C1833     Br1840   1.867       .  S
C1834      C2663   1.378   1_545  A
C1834      H1839   1.086       .  S
C1835      C2662   1.378       .  A
C1836     Br1837   1.867       .  S
C1841      C1842   1.401       .  A
C1841      C1846   1.376       .  A
C1841      H1848   1.080       .  S
C1843      C2672   1.370       .  A
C1843     Br1850   1.918       .  S
C1844      C2671   1.370       .  A
C1844      C1845   1.377       .  A
C1844      H1849   1.053       .  S
C1846     Br1847   1.924       .  S
C1851      C1852   1.411       .  A
C1851      C1856   1.417       .  A
C1851      H1858   1.081       .  S
C1852      C1853   1.399       .  A
C1853      C1854   1.410       .  A
C1853     Br1860   1.888       .  S
C1854      C1855   1.405       .  A
C1854      H1859   1.076       .  S
C1855      C1856   1.410       .  A
C1856     Br1857   1.921       .  S
C1861      C1862   1.408       .  A
C1861      C1866   1.417       .  A
C1861      H1868   1.083       .  S
C1862      C1863   1.418       .  A
C1863      C1864   1.409       .  A
C1863     Br1870   1.905       .  S
C1864      C1865   1.404       .  A
C1864      H1869   1.079       .  S
C1865      C1866   1.425       .  A
C1866     Br1867   1.919       .  S
C1871      C1872   1.409       .  A
C1871      C1876   1.404       .  A
C1871      H1878   1.059       .  S
C1872      C1873   1.414       .  A
C1873      C1874   1.418       .  A
C1873     Br1880   1.915       .  S
C1874      C1875   1.412       .  A
C1874      H1879   1.073       .  S
C1875      C1876   1.396       .  A
C1876     Br1877   1.906       .  S
C1881      C1882   1.406       .  A
C1881      C1886   1.383       .  A
C1881      H1888   1.078       .  S
C1882      C1883   1.398       .  A
C1883      C1884   1.372       .  A
C1883     Br1890   1.908       .  S
C1884      C1885   1.397       .  A
C1884      H1889   1.084       .  S
C1885      C1886   1.394       .  A
C1886     Br1887   1.917       .  S
C1891      C1892   1.413       .  A
C1891      C1896   1.401       .  A
C1891      H1898   1.078       .  S
C1892      C1893   1.402       .  A
C1893      C1894   1.373       .  A
C1893     Br1900   1.918       .  S
C1894      C1895   1.403       .  A
C1894      H1899   1.069       .  S
C1895      C1896   1.402       .  A
C1896     Br2311   1.909       .  S
Br1897     C2310   1.909       .  S
C1901      C1902   1.410       .  A
C1901      C1906   1.420       .  A
C1901      H1908   1.081       .  S
C1902      C1903   1.415       .  A
C1903      C1904   1.398       .  A
C1903     Br2738   1.883       .  S
C1904      C1905   1.398       .  A
C1904      H1909   1.084       .  S
C1905      C1906   1.423       .  A
C1906     Br1907   1.915       .  S
Br1910     C2731   1.883   1_545  S
C1911      C1912   1.410       .  A
C1911      C1916   1.414       .  A
C1911      H1918   1.075       .  S
C1912      C1913   1.407       .  A
C1913      C1914   1.408       .  A
C1913     Br1920   1.918       .  S
C1914      C1915   1.413       .  A
C1914      H1919   1.081       .  S
C1915      C1916   1.408       .  A
C1916     Br1917   1.910       .  S
C1921      C1922   1.405       .  A
C1921      C1926   1.405       .  A
C1921      H1928   1.082       .  S
C1922      C1923   1.419       .  A
C1923      C1924   1.421       .  A
C1923     Br1930   1.920       .  S
C1924      C1925   1.416       .  A
C1924      H1929   1.082       .  S
C1925      C1926   1.415       .  A
C1926     Br1927   1.898       .  S
C1931      C1932   1.409       .  A
C1931      C1936   1.419       .  A
C1931      H1938   1.073       .  S
C1932      C1933   1.418       .  A
C1933      C1934   1.405       .  A
C1933     Br1940   1.901       .  S
C1934      C1935   1.403       .  A
C1934      H1939   1.080       .  S
C1935      C1936   1.407       .  A
C1936     Br1937   1.898       .  S
C1941      C1942   1.414       .  A
C1941      C1946   1.417       .  A
C1941      H1948   1.082       .  S
C1942      C1943   1.411       .  A
C1943      C1944   1.416       .  A
C1943     Br1950   1.905       .  S
C1944      C1945   1.410       .  A
C1944      H1949   1.081       .  S
C1945      C1946   1.404       .  A
C1946     Br1947   1.900       .  S
C1951      C1952   1.412       .  A
C1951      C1956   1.420       .  A
C1951      H1958   1.074       .  S
C1952      C1953   1.411       .  A
C1953      C1954   1.397       .  A
C1954      C1955   1.404       .  A
C1954      H1959   1.084       .  S
C1955      C1956   1.416       .  A
C1956     Br1957   1.913       .  S
C1961      C2790   1.412       .  A
C1961      C1966   1.420   1_565  A
C1961      H2796   1.082       .  S
C1962      C2789   1.412       .  A
C1962      C1963   1.420       .  A
C1963      C2792   1.389       .  A
C1963     Br1970   1.884       .  S
C1964      C2791   1.389   1_545  A
C1964      C1965   1.389       .  A
C1964      H1969   1.083       .  S
C1965      C1966   1.410       .  A
C1966     Br1967   1.893       .  S
H1968      C2789   1.082       .  S
C1971      C1972   1.408       .  A
C1971      H1978   1.079       .  S
C1973      C1974   1.426       .  A
C1973     Br1980   1.917       .  S
C1974      C1975   1.411       .  A
C1974      H1979   1.076       .  S
C1975      C1976   1.427       .  A
C1981      C1982   1.409       .  A
C1981      C1986   1.416       .  A
C1981      H1988   1.083       .  S
C1982      C1983   1.418       .  A
C1983      C1984   1.415       .  A
C1983     Br1990   1.919       .  S
C1984      C1985   1.411       .  A
C1984      H1989   1.083       .  S
C1985      C1986   1.423       .  A
C1986     Br1987   1.920       .  S
C1991      C1992   1.414       .  A
C1991      C1996   1.381       .  A
C1991      H1998   1.082       .  S
C1992      C1993   1.398       .  A
C1993      C1994   1.367       .  A
C1993     Br2414   1.869       .  S
C1994      C1995   1.381       .  A
C1994      H1999   1.081       .  S
C1995      C1996   1.392       .  A
C1996     Br1997   1.917       .  S
Br2000     C2407   1.869       .  S
C2001      C2002   1.390       .  A
C2001      C2006   1.377       .  A
C2001      H2008   1.069       .  S
C2002      C2003   1.395       .  A
C2003      C2004   1.377       .  A
C2003     Br2010   1.920       .  S
C2004      C2005   1.402       .  A
C2004      H2009   1.080       .  S
C2005      C2006   1.400       .  A
C2006     Br2007   1.918       .  S
C2011      C2012   1.406       .  A
C2011      C2016   1.415       .  A
C2011      H2018   1.069       .  S
C2012      C2013   1.423       .  A
C2013      C2014   1.411       .  A
C2013     Br2848   1.927   1_545  S
C2014      C2015   1.410       .  A
C2014      H2019   1.074       .  S
C2015      C2016   1.423       .  A
C2016     Br2017   1.924       .  S
Br2020     C2841   1.927       .  S
C2021      C2022   1.404       .  A
C2021      C2026   1.403       .  A
C2021      H2028   1.082       .  S
C2022      C2023   1.414       .  A
C2023      C2024   1.405       .  A
C2023     Br2030   1.912       .  S
C2024      C2025   1.404       .  A
C2024      H2029   1.083       .  S
C2025      C2026   1.408       .  A
C2026     Br2027   1.904       .  S
C2031      C2032   1.411       .  A
C2031      C2036   1.413       .  A
C2031      H2038   1.080       .  S
C2032      C2033   1.409       .  A
C2033      C2034   1.410       .  A
C2033     Br2040   1.915       .  S
C2034      C2035   1.410       .  A
C2034      H2039   1.074       .  S
C2035      C2036   1.406       .  A
C2036     Br2037   1.888       .  S
C2041      C2042   1.408       .  A
C2041      C3288   1.405   1_544  A
C2041      H2048   1.067       .  S
C2042      C2043   1.424   1_554  A
C2043      C3286   1.421       .  A
C2043     Br2050   1.900   1_556  S
C2044      C3285   1.421       .  A
C2044      C2045   1.405       .  A
C2044      H2049   1.083       .  S
C2045      C2046   1.403       .  A
C2046      C3283   1.405       .  A
C2046     Br2047   1.906       .  S
C2051      C2052   1.401   1_455  A
C2051      H2058   1.081   1_455  S
C2052      C2053   1.418   1_655  A
C2053     Br2060   1.927   1_455  S
C2054      C2055   1.408       .  A
C2054      H2059   1.078       .  S
C2055      C2056   1.417       .  A
C2056     Br2057   1.897       .  S
C2061      C2476   1.408       .  A
C2061      C2066   1.411   1_556  A
C2061      H2068   1.080       .  S
C2062      C2475   1.408       .  A
C2062      C2063   1.423       .  A
C2063      C2478   1.410       .  A
C2063     Br2070   1.919       .  S
C2064      C2477   1.410   1_554  A
C2064      C2065   1.407       .  A
C2064      H2069   1.083       .  S
C2065      C2066   1.420       .  A
C2066     Br2067   1.923       .  S
O2071      C2079   1.282       .  A
O2071     Co2091   2.031       .  S
O2072      C2080   1.250       .  A
O2072     Co2092   1.921       .  S
O2073      C2081   1.272       .  A
O2073     Co2093   1.985       .  S
O2074      C2082   1.281       .  A
O2074     Co2094   2.084       .  S
O2075      C2081   1.284       .  A
O2075     Co2092   2.021       .  S
O2076      C2082   1.255       .  A
O2076     Co2091   2.005       .  S
O2077      C2080   1.286       .  A
O2077     Co2094   2.030       .  S
O2078      C2079   1.279       .  A
O2078     Co2093   1.998       .  S
C2079      C2479   1.510       .  S
C2080      C2416   1.418       .  S
C2081      C2436   1.490       .  S
C2082      C2446   1.512       .  S
O2083      C2096   1.298       .  A
O2083     Co2091   1.995       .  S
O2084      C2097   1.266       .  A
O2084     Co2092   2.026       .  S
O2085     Co2093   1.932       .  S
O2086      C2099   1.305       .  A
O2086     Co2094   2.126       .  S
O2087      C2099   1.275       .  A
O2087     Co2092   1.921       .  S
O2088     Co2091   1.966       .  S
O2089      C2096   1.288       .  A
O2089     Co2094   1.965       .  S
O2090      C2097   1.273       .  A
O2090     Co2093   2.033       .  S
Co2091     O2095   2.014       .  S
Co2092     O2095   1.914       .  S
Co2093     O2095   2.041       .  S
Co2094     O2095   2.055       .  S
C2096      C2466   1.492       .  S
C2097      C2456   1.535       .  S
C2098      C2406   1.453   1_554  S
C2099      C2429   1.524       .  S
O2100      C2108   1.271       .  A
O2100     Co2120   1.973       .  S
O2101      C2109   1.252       .  A
O2101     Co2121   2.006       .  S
O2102      C2110   1.267       .  A
O2102     Co2122   1.944       .  S
O2103      C2111   1.264       .  A
O2103     Co2123   1.956       .  S
O2104      C2110   1.302       .  A
O2104     Co2121   2.138       .  S
O2105      C2111   1.275       .  A
O2105     Co2120   2.024       .  S
O2106      C2109   1.258       .  A
O2106     Co2123   1.986       .  S
O2107      C2108   1.261       .  A
O2107     Co2122   1.954       .  S
C2108      C2419   1.430       .  S
C2109      C2349   1.512       .  S
C2110      C2386   1.535       .  S
C2111      C2379   1.499       .  S
O2112      C2125   1.277       .  A
O2112     Co2120   2.025       .  S
O2113      C2126   1.249       .  A
O2113     Co2121   1.911       .  S
O2114      C2127   1.263       .  A
O2114     Co2122   2.004       .  S
O2115      C2128   1.273       .  A
O2115     Co2123   1.983       .  S
O2116      C2128   1.248       .  A
O2116     Co2121   1.970       .  S
O2117      C2127   1.276       .  A
O2117     Co2120   2.008       .  S
O2118      C2125   1.272       .  A
O2118     Co2123   2.022       .  S
O2119      C2126   1.297       .  A
O2119     Co2122   2.137       .  S
Co2120     O2124   2.054       .  S
Co2121     O2124   2.013       .  S
Co2122     O2124   2.039       .  S
Co2123     O2124   2.054       .  S
C2125      C2356   1.517       .  S
C2126      C2369   1.500       .  S
C2127      C2396   1.513       .  S
C2128      C2409   1.409       .  S
O2129      C2137   1.277       .  A
O2129     Co2149   2.030       .  S
O2130      C2138   1.251       .  A
O2130     Co2150   1.999       .  S
O2131      C2139   1.280       .  A
O2131     Co2151   2.000       .  S
O2132      C2140   1.278       .  A
O2132     Co2152   1.932       .  S
O2133      C2139   1.291       .  A
O2133     Co2150   2.042       .  S
O2134      C2140   1.308       .  A
O2134     Co2149   2.111       .  S
O2135      C2138   1.234       .  A
O2135     Co2152   1.970       .  S
O2136      C2137   1.277       .  A
O2136     Co2151   1.997       .  S
C2137      C2399   1.520       .  S
C2138      C2306   1.468       .  S
C2139      C2326   1.503       .  S
C2140      C2336   1.519       .  S
O2141      C2154   1.265       .  A
O2141     Co2149   1.916       .  S
O2142      C2155   1.280       .  A
O2142     Co2150   2.045       .  S
O2143      C2156   1.260       .  A
O2143     Co2151   1.960       .  S
O2144      C2157   1.319       .  A
O2144     Co2152   2.141       .  S
O2145      C2157   1.287       .  A
O2145     Co2150   1.905       .  S
O2146      C2156   1.249       .  A
O2146     Co2149   1.962       .  S
O2147      C2154   1.305       .  A
O2147     Co2152   2.126       .  S
O2148      C2155   1.276       .  A
O2148     Co2151   2.037       .  S
Co2149     O2153   1.982       .  S
Co2150     O2153   1.906       .  S
Co2151     O2153   2.026       .  S
Co2152     O2153   2.044       .  S
C2154      C2376   1.514       .  S
C2155      C2389   1.548       .  S
C2156      C2296   1.442       .  S
C2157      C2319   1.512       .  S
O2158      C2166   1.280       .  A
O2158     Co2178   2.010       .  S
O2159      C2167   1.253       .  A
O2159     Co2179   1.936       .  S
O2160      C2168   1.282       .  A
O2160     Co2180   2.032       .  S
O2161      C2169   1.320       .  A
O2161     Co2181   2.150       .  S
O2162      C2168   1.268       .  A
O2162     Co2179   1.975       .  S
O2163      C2169   1.282       .  A
O2163     Co2178   1.915       .  S
O2164      C2167   1.287       .  A
O2164     Co2181   1.990       .  S
O2165      C2166   1.284       .  A
O2165     Co2180   2.026       .  S
C2166      C2476   1.517       .  S
C2167      C2299   1.423       .  S
C2168      C2276   1.512       .  S
C2169      C2286   1.519       .  S
O2170      C2183   1.305       .  A
O2170     Co2178   2.125       .  S
O2171      C2184   1.324       .  A
O2171     Co2179   2.170       .  S
O2172     Co2180   1.951       .  S
O2173      C2186   1.309       .  A
O2173     Co2181   2.136       .  S
O2174      C2186   1.283       .  A
O2174     Co2179   1.921       .  S
O2175     Co2178   2.065       .  S
O2176      C2183   1.273       .  A
O2176     Co2181   1.937       .  S
O2177      C2184   1.279       .  A
O2177     Co2180   1.876       .  S
Co2178     O2182   1.962       .  S
Co2179     O2182   1.932       .  S
Co2180     O2182   1.780       .  S
Co2181     O2182   1.995       .  S
C2183      C2459   1.505       .  S
C2184      C2469   1.515       .  S
C2185      C2309   1.476       .  S
C2186      C2266   1.507       .  S
O2187      C2195   1.270       .  A
O2187     Co2207   1.996       .  S
O2188      C2196   1.264       .  A
O2188     Co2208   1.954   1_565  S
O2189      C2197   1.296       .  A
O2190      C2198   1.274       .  A
O2190     Co3038   2.032       .  S
O2191      C2197   1.258       .  A
O2191     Co3036   1.932       .  S
O2192      C2198   1.263       .  A
O2193     Co2210   1.957       .  S
O2194      C2195   1.267   1_455  A
C2195      C2366   1.509       .  S
C2196      C2256   1.439       .  S
C2197      C2316   1.519       .  S
C2198      C2339   1.526       .  S
O2199      C2212   1.290   1_565  A
O2199     Co3035   2.080       .  S
O2200      C2213   1.297       .  A
O2201      C2214   1.265       .  A
O2201     Co2209   1.956       .  S
O2202      C2215   1.265       .  A
O2203      C2215   1.254       .  A
O2203     Co2208   1.997       .  S
O2204     Co2207   1.962       .  S
O2205     Co2210   1.957       .  S
O2206      C2213   1.271   1_565  A
O2206     Co3037   1.942       .  S
Co2207     O3027   2.080       .  S
Co2208     O3019   1.932       .  S
Co2208     O2211   2.014   1_545  S
Co2209     O3034   1.942       .  S
Co2209     O2625   2.016       .  S
Co2210     O3018   2.032       .  S
O2211     Co2623   2.016       .  S
C2212      C2346   1.519       .  S
C2213      C2359   1.517       .  S
C2214      C2249   1.415       .  S
C2215      C2329   1.509       .  S
O2216      C2224   1.298       .  A
O2216     Co2236   2.102       .  S
O2217      C2225   1.255       .  A
O2217     Co2237   1.971       .  S
O2218      C2226   1.264       .  A
O2218     Co2238   2.002       .  S
O2219      C2227   1.297       .  A
O2219     Co3067   1.999       .  S
O2220      C2226   1.268       .  A
O2220     Co3065   2.014       .  S
O2221      C2227   1.291       .  A
O2221     Co2236   2.001       .  S
O2222     Co2239   1.938       .  S
O2223      C2224   1.284   1_455  A
C2224      C2449   1.519       .  S
C2225      C2246   1.419       .  S
C2226      C2269   1.507       .  S
C2227      C2289   1.506       .  S
O2228      C2241   1.283   1_565  A
O2228     Co3064   2.083       .  S
O2229      C2242   1.277       .  A
O2229     Co2237   1.990       .  S
O2230     Co2238   1.891       .  S
O2231      C2244   1.283       .  A
O2232      C2244   1.275       .  A
O2232     Co2237   1.986       .  S
O2233      C2243   1.295       .  A
O2233     Co2236   2.054       .  S
O2234      C2241   1.260       .  A
O2234     Co2239   2.023       .  S
O2235      C2242   1.288       .  A
O2235     Co3066   2.027   1_545  S
Co2236     O3056   2.083       .  S
Co2237     O3048   2.014       .  S
Co2237     O2240   2.055       .  S
Co2238     O3063   2.027       .  S
Co2238     O3068   1.934       .  S
Co2239     O3047   1.999       .  S
O2240     Co3066   1.934   1_545  S
C2241      C2426   1.530       .  S
C2242      C2439   1.488       .  S
C2243      C2259   1.432       .  S
C2244      C2279   1.510       .  S
C2245      C2250   1.365       .  A
C2245      H2252   1.086       .  S
C2246      C2247   1.403       .  A
C2247      C2248   1.368       .  A
C2247     Br2254   1.867       .  S
C2248      C3077   1.378   1_545  A
C2248      H2253   1.086       .  S
C2249      C3076   1.378       .  A
C2250     Br2251   1.867       .  S
C2255      C2256   1.401       .  A
C2255      C2260   1.376       .  A
C2255      H2262   1.080       .  S
C2257      C3086   1.370       .  A
C2257     Br2264   1.918       .  S
C2258      C3085   1.370       .  A
C2258      C2259   1.377       .  A
C2258      H2263   1.053       .  S
C2260     Br2261   1.924       .  S
C2265      C2266   1.411       .  A
C2265      C2270   1.417       .  A
C2265      H2272   1.081       .  S
C2266      C2267   1.399       .  A
C2267      C2268   1.410       .  A
C2267     Br2274   1.888       .  S
C2268      C2269   1.405       .  A
C2268      H2273   1.076       .  S
C2269      C2270   1.410       .  A
C2270     Br2271   1.921       .  S
C2275      C2276   1.408       .  A
C2275      C2280   1.417       .  A
C2275      H2282   1.083       .  S
C2276      C2277   1.418       .  A
C2277      C2278   1.409       .  A
C2277     Br2284   1.905       .  S
C2278      C2279   1.404       .  A
C2278      H2283   1.079       .  S
C2279      C2280   1.425       .  A
C2280     Br2281   1.919       .  S
C2285      C2286   1.409       .  A
C2285      C2290   1.404       .  A
C2285      H2292   1.059       .  S
C2286      C2287   1.414       .  A
C2287      C2288   1.418       .  A
C2287     Br2294   1.915       .  S
C2288      C2289   1.412       .  A
C2288      H2293   1.073       .  S
C2289      C2290   1.396       .  A
C2290     Br2291   1.906       .  S
C2295      C2296   1.406       .  A
C2295      C2300   1.383       .  A
C2295      H2302   1.078       .  S
C2296      C2297   1.398       .  A
C2297      C2298   1.372       .  A
C2297     Br2304   1.908       .  S
C2298      C2299   1.397       .  A
C2298      H2303   1.084       .  S
C2299      C2300   1.394       .  A
C2300     Br2301   1.917       .  S
C2305      C2306   1.413       .  A
C2305      C2310   1.401       .  A
C2305      H2312   1.078       .  S
C2306      C2307   1.402       .  A
C2307      C2308   1.373       .  A
C2307     Br2314   1.918       .  S
C2308      C2309   1.403       .  A
C2308      H2313   1.069       .  S
C2309      C2310   1.402       .  A
C2315      C2316   1.410       .  A
C2315      C2320   1.420       .  A
C2315      H2322   1.081       .  S
C2316      C2317   1.415       .  A
C2317      C2318   1.398       .  A
C2317     Br3152   1.883       .  S
C2318      C2319   1.398       .  A
C2318      H2323   1.084       .  S
C2319      C2320   1.423       .  A
C2320     Br2321   1.915       .  S
Br2324     C3145   1.883   1_545  S
C2325      C2326   1.410       .  A
C2325      C2330   1.414       .  A
C2325      H2332   1.075       .  S
C2326      C2327   1.407       .  A
C2327      C2328   1.408       .  A
C2327     Br2334   1.918       .  S
C2328      C2329   1.413       .  A
C2328      H2333   1.081       .  S
C2329      C2330   1.408       .  A
C2330     Br2331   1.910       .  S
C2335      C2336   1.405       .  A
C2335      C2340   1.405       .  A
C2335      H2342   1.082       .  S
C2336      C2337   1.419       .  A
C2337      C2338   1.421       .  A
C2337     Br2344   1.920       .  S
C2338      C2339   1.416       .  A
C2338      H2343   1.082       .  S
C2339      C2340   1.415       .  A
C2340     Br2341   1.898       .  S
C2345      C2346   1.409       .  A
C2345      C2350   1.419       .  A
C2345      H2352   1.073       .  S
C2346      C2347   1.418       .  A
C2347      C2348   1.405       .  A
C2347     Br2354   1.901       .  S
C2348      C2349   1.403       .  A
C2348      H2353   1.080       .  S
C2349      C2350   1.407       .  A
C2350     Br2351   1.898       .  S
C2355      C2356   1.414       .  A
C2355      C2360   1.417       .  A
C2355      H2362   1.082       .  S
C2356      C2357   1.411       .  A
C2357      C2358   1.416       .  A
C2357     Br2364   1.905       .  S
C2358      C2359   1.410       .  A
C2358      H2363   1.081       .  S
C2359      C2360   1.404       .  A
C2360     Br2361   1.900       .  S
C2365      C2366   1.412       .  A
C2365      C2370   1.420       .  A
C2365      H2372   1.074       .  S
C2366      C2367   1.411       .  A
C2367      C2368   1.397       .  A
C2368      C2369   1.404       .  A
C2368      H2373   1.084       .  S
C2369      C2370   1.416       .  A
C2370     Br2371   1.913       .  S
C2375      C3204   1.412       .  A
C2375      C2380   1.420   1_565  A
C2375      H3210   1.082       .  S
C2376      C3203   1.412       .  A
C2376      C2377   1.420       .  A
C2377      C3206   1.389       .  A
C2377     Br2384   1.884       .  S
C2378      C3205   1.389   1_545  A
C2378      C2379   1.389       .  A
C2378      H2383   1.083       .  S
C2379      C2380   1.410       .  A
C2380     Br2381   1.893       .  S
H2382      C3203   1.082       .  S
C2385      C2386   1.408       .  A
C2385      H2392   1.079       .  S
C2387      C2388   1.426       .  A
C2387     Br2394   1.917       .  S
C2388      C2389   1.411       .  A
C2388      H2393   1.076       .  S
C2389      C2390   1.427       .  A
C2395      C2396   1.409       .  A
C2395      C2400   1.416       .  A
C2395      H2402   1.083       .  S
C2396      C2397   1.418       .  A
C2397      C2398   1.415       .  A
C2397     Br2404   1.919       .  S
C2398      C2399   1.411       .  A
C2398      H2403   1.083       .  S
C2399      C2400   1.423       .  A
C2400     Br2401   1.920       .  S
C2405      C2406   1.414       .  A
C2405      C2410   1.381       .  A
C2405      H2412   1.082       .  S
C2406      C2407   1.398       .  A
C2407      C2408   1.367       .  A
C2408      C2409   1.381       .  A
C2408      H2413   1.081       .  S
C2409      C2410   1.392       .  A
C2410     Br2411   1.917       .  S
C2415      C2416   1.390       .  A
C2415      C2420   1.377       .  A
C2415      H2422   1.069       .  S
C2416      C2417   1.395       .  A
C2417      C2418   1.377       .  A
C2417     Br2424   1.920       .  S
C2418      C2419   1.402       .  A
C2418      H2423   1.080       .  S
C2419      C2420   1.400       .  A
C2420     Br2421   1.918       .  S
C2425      C2426   1.406       .  A
C2425      C2430   1.415       .  A
C2425      H2432   1.069       .  S
C2426      C2427   1.423       .  A
C2427      C2428   1.411       .  A
C2427     Br3262   1.927   1_545  S
C2428      C2429   1.410       .  A
C2428      H2433   1.074       .  S
C2429      C2430   1.423       .  A
C2430     Br2431   1.924       .  S
Br2434     C3255   1.927       .  S
C2435      C2436   1.404       .  A
C2435      C2440   1.403       .  A
C2435      H2442   1.082       .  S
C2436      C2437   1.414       .  A
C2437      C2438   1.405       .  A
C2437     Br2444   1.912       .  S
C2438      C2439   1.404       .  A
C2438      H2443   1.083       .  S
C2439      C2440   1.408       .  A
C2440     Br2441   1.904       .  S
C2445      C2446   1.411       .  A
C2445      C2450   1.413       .  A
C2445      H2452   1.080       .  S
C2446      C2447   1.409       .  A
C2447      C2448   1.410       .  A
C2447     Br2454   1.915       .  S
C2448      C2449   1.410       .  A
C2448      H2453   1.074       .  S
C2449      C2450   1.406       .  A
C2450     Br2451   1.888       .  S
C2455      C2456   1.408       .  A
C2455      C2874   1.405   1_545  A
C2455      H2462   1.067       .  S
C2456      C2457   1.424       .  A
C2457      C2872   1.421       .  A
C2457     Br2464   1.900       .  S
C2458      C2871   1.421       .  A
C2458      C2459   1.405       .  A
C2458      H2463   1.083       .  S
C2459      C2460   1.403       .  A
C2460      C2869   1.405   1_556  A
C2460     Br2461   1.906       .  S
C2465      C2466   1.401   1_455  A
C2465      H2472   1.081   1_455  S
C2466      C2467   1.418   1_655  A
C2467     Br2474   1.927   1_455  S
C2468      C2469   1.408   1_554  A
C2468      H2473   1.078   1_554  S
C2469      C2470   1.417   1_556  A
C2470     Br2471   1.897       .  S
C2475      C2480   1.411       .  A
C2475      H2482   1.080       .  S
C2476      C2477   1.423       .  A
C2477     Br2484   1.919       .  S
C2478      C2479   1.407       .  A
C2478      H2483   1.083       .  S
C2479      C2480   1.420       .  A
C2480     Br2481   1.923       .  S
O2485      C2493   1.282       .  A
O2485     Co2505   2.031       .  S
O2486      C2494   1.250       .  A
O2486     Co2506   1.921       .  S
O2487      C2495   1.272       .  A
O2487     Co2507   1.985       .  S
O2488      C2496   1.281       .  A
O2488     Co2508   2.084       .  S
O2489      C2495   1.284       .  A
O2489     Co2506   2.021       .  S
O2490      C2496   1.255       .  A
O2490     Co2505   2.005       .  S
O2491      C2494   1.286       .  A
O2491     Co2508   2.030       .  S
O2492      C2493   1.279       .  A
O2492     Co2507   1.998       .  S
C2493      C2893   1.510       .  S
C2494      C2830   1.418       .  S
C2495      C2850   1.490       .  S
C2496      C2860   1.512       .  S
O2497      C2510   1.298       .  A
O2497     Co2505   1.995       .  S
O2498      C2511   1.266       .  A
O2498     Co2506   2.026       .  S
O2499      C2926   1.254       .  A
O2499     Co2507   1.932       .  S
O2500      C2513   1.305       .  A
O2500     Co2508   2.126       .  S
O2501      C2513   1.275       .  A
O2501     Co2506   1.921       .  S
O2502      C2926   1.264       .  A
O2502     Co2505   1.966       .  S
O2503      C2510   1.288       .  A
O2503     Co2508   1.965       .  S
O2504      C2511   1.273       .  A
O2504     Co2507   2.033       .  S
Co2505     O2509   2.014       .  S
Co2506     O2509   1.914       .  S
Co2507     O2509   2.041       .  S
Co2508     O2509   2.055       .  S
C2510      C2880   1.492       .  S
C2511      C2870   1.535       .  S
C2512      O2913   1.254       .  A
C2512      O2916   1.264       .  A
C2512      C2820   1.453       .  S
C2513      C2843   1.524       .  S
O2514      C2522   1.271       .  A
O2514     Co2534   1.973       .  S
O2515      C2523   1.252       .  A
O2515     Co2535   2.006       .  S
O2516      C2524   1.267       .  A
O2516     Co2536   1.944       .  S
O2517      C2525   1.264       .  A
O2517     Co2537   1.956       .  S
O2518      C2524   1.302       .  A
O2518     Co2535   2.138       .  S
O2519      C2525   1.275       .  A
O2519     Co2534   2.024       .  S
O2520      C2523   1.258       .  A
O2520     Co2537   1.986       .  S
O2521      C2522   1.261       .  A
O2521     Co2536   1.954       .  S
C2522      C2833   1.430       .  S
C2523      C2763   1.512       .  S
C2524      C2800   1.535       .  S
C2525      C2793   1.499       .  S
O2526      C2539   1.277       .  A
O2526     Co2534   2.025       .  S
O2527      C2540   1.249       .  A
O2527     Co2535   1.911       .  S
O2528      C2541   1.263       .  A
O2528     Co2536   2.004       .  S
O2529      C2542   1.273       .  A
O2529     Co2537   1.983       .  S
O2530      C2542   1.248       .  A
O2530     Co2535   1.970       .  S
O2531      C2541   1.276       .  A
O2531     Co2534   2.008       .  S
O2532      C2539   1.272       .  A
O2532     Co2537   2.022       .  S
O2533      C2540   1.297       .  A
O2533     Co2536   2.137       .  S
Co2534     O2538   2.054       .  S
Co2535     O2538   2.013       .  S
Co2536     O2538   2.039       .  S
Co2537     O2538   2.054       .  S
C2539      C2770   1.517       .  S
C2540      C2783   1.500       .  S
C2541      C2810   1.513       .  S
C2542      C2823   1.409       .  S
O2543      C2551   1.277       .  A
O2543     Co2563   2.030       .  S
O2544      C2552   1.251       .  A
O2544     Co2564   1.999       .  S
O2545      C2553   1.280       .  A
O2545     Co2565   2.000       .  S
O2546      C2554   1.278       .  A
O2546     Co2566   1.932       .  S
O2547      C2553   1.291       .  A
O2547     Co2564   2.042       .  S
O2548      C2554   1.308       .  A
O2548     Co2563   2.111       .  S
O2549      C2552   1.234       .  A
O2549     Co2566   1.970       .  S
O2550      C2551   1.277       .  A
O2550     Co2565   1.997       .  S
C2551      C2813   1.520       .  S
C2552      C2720   1.468       .  S
C2553      C2740   1.503       .  S
C2554      C2750   1.519       .  S
O2555      C2568   1.265       .  A
O2555     Co2563   1.916       .  S
O2556      C2569   1.280       .  A
O2556     Co2564   2.045       .  S
O2557      C2570   1.260       .  A
O2557     Co2565   1.960       .  S
O2558      C2571   1.319       .  A
O2558     Co2566   2.141       .  S
O2559      C2571   1.287       .  A
O2559     Co2564   1.905       .  S
O2560      C2570   1.249       .  A
O2560     Co2563   1.962       .  S
O2561      C2568   1.305       .  A
O2561     Co2566   2.126       .  S
O2562      C2569   1.276       .  A
O2562     Co2565   2.037       .  S
Co2563     O2567   1.982       .  S
Co2564     O2567   1.906       .  S
Co2565     O2567   2.026       .  S
Co2566     O2567   2.044       .  S
C2568      C2790   1.514       .  S
C2569      C2803   1.548       .  S
C2570      C2710   1.442       .  S
C2571      C2733   1.512       .  S
O2572      C2580   1.280       .  A
O2572     Co2592   2.010       .  S
O2573      C2581   1.253       .  A
O2573     Co2593   1.936       .  S
O2574      C2582   1.282       .  A
O2574     Co2594   2.032       .  S
O2575      C2583   1.320       .  A
O2575     Co2595   2.150       .  S
O2576      C2582   1.268       .  A
O2576     Co2593   1.975       .  S
O2577      C2583   1.282       .  A
O2577     Co2592   1.915       .  S
O2578      C2581   1.287       .  A
O2578     Co2595   1.990       .  S
O2579      C2580   1.284       .  A
O2579     Co2594   2.026       .  S
C2580      C2890   1.517       .  S
C2581      C2713   1.423       .  S
C2582      C2690   1.512       .  S
C2583      C2700   1.519       .  S
O2584      C2597   1.305       .  A
O2584     Co2592   2.125       .  S
O2585      C2598   1.324       .  A
O2585     Co2593   2.170       .  S
O2586      C3013   1.253       .  A
O2586     Co2594   1.951       .  S
O2587      C2600   1.309       .  A
O2587     Co2595   2.136       .  S
O2588      C2600   1.283       .  A
O2588     Co2593   1.921       .  S
O2589      C3013   1.296       .  A
O2589     Co2592   2.065       .  S
O2590      C2597   1.273       .  A
O2590     Co2595   1.937       .  S
O2591      C2598   1.279       .  A
O2591     Co2594   1.876       .  S
Co2592     O2596   1.962       .  S
Co2593     O2596   1.932       .  S
Co2594     O2596   1.780       .  S
Co2595     O2596   1.995       .  S
C2597      C2873   1.505       .  S
C2598      C2883   1.515       .  S
C2599      O3000   1.253       .  A
C2599      O3003   1.296       .  A
C2599      C2723   1.476   1_556  S
C2600      C2680   1.507       .  S
O2601      C2609   1.270       .  A
O2601     Co2621   1.996       .  S
O2602      C2610   1.264       .  A
O2602     Co2622   1.954       .  S
O2603      C2611   1.296       .  A
O2603     Co3037   2.134   1_554  S
O2604      C2612   1.274   1_545  A
O2605      C2611   1.258   1_545  A
O2606      C2612   1.263       .  A
O2606     Co3035   2.003   1_554  S
O2607     Co2624   1.957       .  S
O2608      C2609   1.267   1_455  A
C2609      C2780   1.509       .  S
C2610      C2670   1.439       .  S
C2611      C2730   1.519       .  S
C2612      C2753   1.526       .  S
O2613      C2626   1.290       .  A
O2614      C2627   1.297       .  A
O2614     Co3036   2.118       .  S
O2615      C2628   1.265   1_545  A
O2615     Co2623   1.956   1_545  S
O2616      C2629   1.265       .  A
O2617      C2629   1.254       .  A
O2617     Co2622   1.997       .  S
O2618     Co2621   1.962       .  S
O2619      C3040   1.262       .  A
O2619     Co2624   1.957   1_556  S
O2620      C2627   1.271       .  A
Co2621     O3020   2.003       .  S
Co2622     O3028   2.118   1_554  S
Co2622     O2625   2.014   1_554  S
Co2623     O3017   2.134       .  S
C2626      O3033   1.262       .  A
C2626      C2760   1.519       .  S
C2627      C2773   1.517       .  S
C2628      C2663   1.415       .  S
C2629      C2743   1.509       .  S
O2630      C2638   1.298       .  A
O2630     Co2650   2.102       .  S
O2631      C2639   1.255       .  A
O2631     Co2651   1.971       .  S
O2632      C2640   1.264       .  A
O2632     Co2652   2.002       .  S
O2633      C2641   1.297   1_545  A
O2634      C2640   1.268   1_545  A
O2635      C2641   1.291       .  A
O2635     Co2650   2.001       .  S
O2636     Co2653   1.938       .  S
O2637      C2638   1.284   1_455  A
C2638      C2863   1.519       .  S
C2639      C2660   1.419       .  S
C2640      C2683   1.507       .  S
C2641      C2703   1.506       .  S
O2642      C2655   1.283       .  A
O2643      C2656   1.277       .  A
O2643     Co2651   1.990       .  S
O2644     Co2652   1.891       .  S
O2645      C2658   1.283       .  A
O2646      C2658   1.275       .  A
O2646     Co2651   1.986       .  S
O2647      C2657   1.295       .  A
O2647     Co2650   2.054       .  S
O2648      C2655   1.260       .  A
O2648     Co2653   2.023       .  S
O2649      C2656   1.288       .  A
Co2651     O2654   2.055       .  S
C2655      C2840   1.530       .  S
C2656      C2853   1.488       .  S
C2657      C2673   1.432       .  S
C2658      C2693   1.510       .  S
C2659      C2664   1.365       .  A
C2659      H2666   1.086       .  S
C2660      C2661   1.403       .  A
C2661      C2662   1.368       .  A
C2661     Br2668   1.867       .  S
C2662      H2667   1.086       .  S
C2664     Br2665   1.867       .  S
C2669      C2670   1.401       .  A
C2669      C2674   1.376       .  A
C2669      H2676   1.080       .  S
C2671     Br2678   1.918       .  S
C2672      C2673   1.377   1_545  A
C2672      H2677   1.053       .  S
C2674     Br2675   1.924       .  S
C2679      C2680   1.411       .  A
C2679      C2684   1.417       .  A
C2679      H2686   1.081       .  S
C2680      C2681   1.399       .  A
C2681      C2682   1.410       .  A
C2681     Br2688   1.888       .  S
C2682      C2683   1.405       .  A
C2682      H2687   1.076       .  S
C2683      C2684   1.410       .  A
C2684     Br2685   1.921       .  S
C2689      C2690   1.408       .  A
C2689      C2694   1.417       .  A
C2689      H2696   1.083       .  S
C2690      C2691   1.418       .  A
C2691      C2692   1.409       .  A
C2691     Br2698   1.905       .  S
C2692      C2693   1.404       .  A
C2692      H2697   1.079       .  S
C2693      C2694   1.425       .  A
C2694     Br2695   1.919       .  S
C2699      C2700   1.409       .  A
C2699      C2704   1.404       .  A
C2699      H2706   1.059       .  S
C2700      C2701   1.414       .  A
C2701      C2702   1.418       .  A
C2701     Br2708   1.915       .  S
C2702      C2703   1.412       .  A
C2702      H2707   1.073       .  S
C2703      C2704   1.396       .  A
C2704     Br2705   1.906       .  S
C2709      C2710   1.406       .  A
C2709      C2714   1.383       .  A
C2709      H2716   1.078       .  S
C2710      C2711   1.398       .  A
C2711      C2712   1.372       .  A
C2711     Br2718   1.908       .  S
C2712      C2713   1.397       .  A
C2712      H2717   1.084       .  S
C2713      C2714   1.394       .  A
C2714     Br2715   1.917       .  S
C2719      C2720   1.413       .  A
C2719      C2724   1.401       .  A
C2719      H2726   1.078       .  S
C2720      C2721   1.402       .  A
C2721      C2722   1.373       .  A
C2721     Br2728   1.918       .  S
C2722      C2723   1.403       .  A
C2722      H2727   1.069       .  S
C2723      C2724   1.402       .  A
C2724     Br3139   1.909       .  S
Br2725     C3138   1.909       .  S
C2729      C2730   1.410       .  A
C2729      C2734   1.420       .  A
C2729      H2736   1.081       .  S
C2730      C2731   1.415       .  A
C2731      C2732   1.398       .  A
C2732      C2733   1.398       .  A
C2732      H2737   1.084       .  S
C2733      C2734   1.423       .  A
C2734     Br2735   1.915       .  S
C2739      C2740   1.410       .  A
C2739      C2744   1.414       .  A
C2739      H2746   1.075       .  S
C2740      C2741   1.407       .  A
C2741      C2742   1.408       .  A
C2741     Br2748   1.918       .  S
C2742      C2743   1.413       .  A
C2742      H2747   1.081       .  S
C2743      C2744   1.408       .  A
C2744     Br2745   1.910       .  S
C2749      C2750   1.405       .  A
C2749      C2754   1.405       .  A
C2749      H2756   1.082       .  S
C2750      C2751   1.419       .  A
C2751      C2752   1.421       .  A
C2751     Br2758   1.920       .  S
C2752      C2753   1.416       .  A
C2752      H2757   1.082       .  S
C2753      C2754   1.415       .  A
C2754     Br2755   1.898   1_565  S
C2759      C2760   1.409       .  A
C2759      C2764   1.419       .  A
C2759      H2766   1.073       .  S
C2760      C2761   1.418       .  A
C2761      C2762   1.405       .  A
C2761     Br2768   1.901       .  S
C2762      C2763   1.403       .  A
C2762      H2767   1.080       .  S
C2763      C2764   1.407       .  A
C2764     Br2765   1.898       .  S
C2769      C2770   1.414       .  A
C2769      C2774   1.417       .  A
C2769      H2776   1.082       .  S
C2770      C2771   1.411       .  A
C2771      C2772   1.416       .  A
C2771     Br2778   1.905       .  S
C2772      C2773   1.410       .  A
C2772      H2777   1.081       .  S
C2773      C2774   1.404       .  A
C2774     Br2775   1.900       .  S
C2779      C2780   1.412       .  A
C2779      C2784   1.420       .  A
C2779      H2786   1.074       .  S
C2780      C2781   1.411       .  A
C2781      C2782   1.397       .  A
C2782      C2783   1.404       .  A
C2782      H2787   1.084       .  S
C2783      C2784   1.416       .  A
C2784     Br2785   1.913       .  S
C2789      C2794   1.420       .  A
C2790      C2791   1.420       .  A
C2791     Br2798   1.884       .  S
C2792      C2793   1.389       .  A
C2792      H2797   1.083       .  S
C2793      C2794   1.410       .  A
C2794     Br2795   1.893       .  S
C2799      C2800   1.408       .  A
C2799      H2806   1.079       .  S
C2801      C2802   1.426       .  A
C2801     Br2808   1.917       .  S
C2802      C2803   1.411       .  A
C2802      H2807   1.076       .  S
C2803      C2804   1.427       .  A
C2809      C2810   1.409       .  A
C2809      C2814   1.416       .  A
C2809      H2816   1.083       .  S
C2810      C2811   1.418       .  A
C2811      C2812   1.415       .  A
C2811     Br2818   1.919       .  S
C2812      C2813   1.411       .  A
C2812      H2817   1.083       .  S
C2813      C2814   1.423       .  A
C2814     Br2815   1.920       .  S
C2819      C2820   1.414       .  A
C2819      C2824   1.381       .  A
C2819      H2826   1.082       .  S
C2820      C2821   1.398       .  A
C2821      C2822   1.367       .  A
C2821     Br3242   1.869       .  S
C2822      C2823   1.381       .  A
C2822      H2827   1.081       .  S
C2823      C2824   1.392       .  A
C2824     Br2825   1.917       .  S
Br2828     C3235   1.869       .  S
C2829      C2830   1.390       .  A
C2829      C2834   1.377       .  A
C2829      H2836   1.069       .  S
C2830      C2831   1.395       .  A
C2831      C2832   1.377       .  A
C2831     Br2838   1.920       .  S
C2832      C2833   1.402       .  A
C2832      H2837   1.080       .  S
C2833      C2834   1.400       .  A
C2834     Br2835   1.918       .  S
C2839      C2840   1.406       .  A
C2839      C2844   1.415       .  A
C2839      H2846   1.069       .  S
C2840      C2841   1.423       .  A
C2841      C2842   1.411       .  A
C2842      C2843   1.410       .  A
C2842      H2847   1.074       .  S
C2843      C2844   1.423       .  A
C2844     Br2845   1.924       .  S
C2849      C2850   1.404       .  A
C2849      C2854   1.403       .  A
C2849      H2856   1.082       .  S
C2850      C2851   1.414       .  A
C2851      C2852   1.405       .  A
C2851     Br2858   1.912       .  S
C2852      C2853   1.404       .  A
C2852      H2857   1.083       .  S
C2853      C2854   1.408       .  A
C2854     Br2855   1.904       .  S
C2859      C2860   1.411       .  A
C2859      C2864   1.413       .  A
C2859      H2866   1.080       .  S
C2860      C2861   1.409       .  A
C2861      C2862   1.410       .  A
C2861     Br2868   1.915       .  S
C2862      C2863   1.410       .  A
C2862      H2867   1.074       .  S
C2863      C2864   1.406       .  A
C2864     Br2865   1.888       .  S
C2869      C2870   1.408       .  A
C2869      H2876   1.067       .  S
C2870      C2871   1.424   1_554  A
C2871     Br2878   1.900   1_556  S
C2872      C2873   1.405   1_545  A
C2872      H2877   1.083       .  S
C2873      C2874   1.403       .  A
C2874     Br2875   1.906       .  S
C2879      C2880   1.401   1_455  A
C2879      H2886   1.081   1_455  S
C2880      C2881   1.418   1_655  A
C2881     Br2888   1.927   1_455  S
C2882      C2883   1.408       .  A
C2882      H2887   1.078       .  S
C2883      C2884   1.417       .  A
C2884     Br2885   1.897       .  S
C2889      C3304   1.408       .  A
C2889      C2894   1.411   1_556  A
C2889      H2896   1.080       .  S
C2890      C3303   1.408       .  A
C2890      C2891   1.423       .  A
C2891      C3306   1.410       .  A
C2891     Br2898   1.919       .  S
C2892      C3305   1.410   1_554  A
C2892      C2893   1.407       .  A
C2892      H2897   1.083       .  S
C2893      C2894   1.420       .  A
C2894     Br2895   1.923       .  S
O2899      C2907   1.282       .  A
O2899     Co2919   2.031       .  S
O2900      C2908   1.250       .  A
O2900     Co2920   1.921       .  S
O2901      C2909   1.272       .  A
O2901     Co2921   1.985       .  S
O2902      C2910   1.281       .  A
O2902     Co2922   2.084       .  S
O2903      C2909   1.284       .  A
O2903     Co2920   2.021       .  S
O2904      C2910   1.255       .  A
O2904     Co2919   2.005       .  S
O2905      C2908   1.286       .  A
O2905     Co2922   2.030       .  S
O2906      C2907   1.279       .  A
O2906     Co2921   1.998       .  S
C2907      C3307   1.510       .  S
C2908      C3244   1.418       .  S
C2909      C3264   1.490       .  S
C2910      C3274   1.512       .  S
O2911      C2924   1.298       .  A
O2911     Co2919   1.995       .  S
O2912      C2925   1.266       .  A
O2912     Co2920   2.026       .  S
O2913     Co2921   1.932       .  S
O2914      C2927   1.305       .  A
O2914     Co2922   2.126       .  S
O2915      C2927   1.275       .  A
O2915     Co2920   1.921       .  S
O2916     Co2919   1.966       .  S
O2917      C2924   1.288       .  A
O2917     Co2922   1.965       .  S
O2918      C2925   1.273       .  A
O2918     Co2921   2.033       .  S
Co2919     O2923   2.014       .  S
Co2920     O2923   1.914       .  S
Co2921     O2923   2.041       .  S
Co2922     O2923   2.055       .  S
C2924      C3294   1.492       .  S
C2925      C3284   1.535       .  S
C2926      C3234   1.453   1_554  S
C2927      C3257   1.524       .  S
O2928      C2936   1.271       .  A
O2928     Co2948   1.973       .  S
O2929      C2937   1.252       .  A
O2929     Co2949   2.006       .  S
O2930      C2938   1.267       .  A
O2930     Co2950   1.944       .  S
O2931      C2939   1.264       .  A
O2931     Co2951   1.956       .  S
O2932      C2938   1.302       .  A
O2932     Co2949   2.138       .  S
O2933      C2939   1.275       .  A
O2933     Co2948   2.024       .  S
O2934      C2937   1.258       .  A
O2934     Co2951   1.986       .  S
O2935      C2936   1.261       .  A
O2935     Co2950   1.954       .  S
C2936      C3247   1.430       .  S
C2937      C3177   1.512       .  S
C2938      C3214   1.535       .  S
C2939      C3207   1.499       .  S
O2940      C2953   1.277       .  A
O2940     Co2948   2.025       .  S
O2941      C2954   1.249       .  A
O2941     Co2949   1.911       .  S
O2942      C2955   1.263       .  A
O2942     Co2950   2.004       .  S
O2943      C2956   1.273       .  A
O2943     Co2951   1.983       .  S
O2944      C2956   1.248       .  A
O2944     Co2949   1.970       .  S
O2945      C2955   1.276       .  A
O2945     Co2948   2.008       .  S
O2946      C2953   1.272       .  A
O2946     Co2951   2.022       .  S
O2947      C2954   1.297       .  A
O2947     Co2950   2.137       .  S
Co2948     O2952   2.054       .  S
Co2949     O2952   2.013       .  S
Co2950     O2952   2.039       .  S
Co2951     O2952   2.054       .  S
C2953      C3184   1.517       .  S
C2954      C3197   1.500       .  S
C2955      C3224   1.513       .  S
C2956      C3237   1.409       .  S
O2957      C2965   1.277       .  A
O2957     Co2977   2.030       .  S
O2958      C2966   1.251       .  A
O2958     Co2978   1.999       .  S
O2959      C2967   1.280       .  A
O2959     Co2979   2.000       .  S
O2960      C2968   1.278       .  A
O2960     Co2980   1.932       .  S
O2961      C2967   1.291       .  A
O2961     Co2978   2.042       .  S
O2962      C2968   1.308       .  A
O2962     Co2977   2.111       .  S
O2963      C2966   1.234       .  A
O2963     Co2980   1.970       .  S
O2964      C2965   1.277       .  A
O2964     Co2979   1.997       .  S
C2965      C3227   1.520       .  S
C2966      C3134   1.468       .  S
C2967      C3154   1.503       .  S
C2968      C3164   1.519       .  S
O2969      C2982   1.265       .  A
O2969     Co2977   1.916       .  S
O2970      C2983   1.280       .  A
O2970     Co2978   2.045       .  S
O2971      C2984   1.260       .  A
O2971     Co2979   1.960       .  S
O2972      C2985   1.319       .  A
O2972     Co2980   2.141       .  S
O2973      C2985   1.287       .  A
O2973     Co2978   1.905       .  S
O2974      C2984   1.249       .  A
O2974     Co2977   1.962       .  S
O2975      C2982   1.305       .  A
O2975     Co2980   2.126       .  S
O2976      C2983   1.276       .  A
O2976     Co2979   2.037       .  S
Co2977     O2981   1.982       .  S
Co2978     O2981   1.906       .  S
Co2979     O2981   2.026       .  S
Co2980     O2981   2.044       .  S
C2982      C3204   1.514       .  S
C2983      C3217   1.548       .  S
C2984      C3124   1.442       .  S
C2985      C3147   1.512       .  S
O2986      C2994   1.280       .  A
O2986     Co3006   2.010       .  S
O2987      C2995   1.253       .  A
O2987     Co3007   1.936       .  S
O2988      C2996   1.282       .  A
O2988     Co3008   2.032       .  S
O2989      C2997   1.320       .  A
O2989     Co3009   2.150       .  S
O2990      C2996   1.268       .  A
O2990     Co3007   1.975       .  S
O2991      C2997   1.282       .  A
O2991     Co3006   1.915       .  S
O2992      C2995   1.287       .  A
O2992     Co3009   1.990       .  S
O2993      C2994   1.284       .  A
O2993     Co3008   2.026       .  S
C2994      C3304   1.517       .  S
C2995      C3127   1.423       .  S
C2996      C3104   1.512       .  S
C2997      C3114   1.519       .  S
O2998      C3011   1.305       .  A
O2998     Co3006   2.125       .  S
O2999      C3012   1.324       .  A
O2999     Co3007   2.170       .  S
O3000     Co3008   1.951       .  S
O3001      C3014   1.309       .  A
O3001     Co3009   2.136       .  S
O3002      C3014   1.283       .  A
O3002     Co3007   1.921       .  S
O3003     Co3006   2.065       .  S
O3004      C3011   1.273       .  A
O3004     Co3009   1.937       .  S
O3005      C3012   1.279       .  A
O3005     Co3008   1.876       .  S
Co3006     O3010   1.962       .  S
Co3007     O3010   1.932       .  S
Co3008     O3010   1.780       .  S
Co3009     O3010   1.995       .  S
C3011      C3287   1.505       .  S
C3012      C3297   1.515       .  S
C3013      C3137   1.476       .  S
C3014      C3094   1.507       .  S
O3015      C3023   1.270       .  A
O3015     Co3035   1.996       .  S
O3016      C3024   1.264       .  A
O3016     Co3036   1.954       .  S
O3017      C3025   1.296       .  A
O3018      C3026   1.274   1_545  A
O3019      C3025   1.258   1_545  A
O3020      C3026   1.263       .  A
O3021     Co3038   1.957       .  S
O3022      C3023   1.267   1_455  A
C3023      C3194   1.509       .  S
C3024      C3084   1.439       .  S
C3025      C3144   1.519       .  S
C3026      C3167   1.526       .  S
O3027      C3040   1.290       .  A
O3028      C3041   1.297       .  A
O3029      C3042   1.265   1_545  A
O3029     Co3037   1.956   1_545  S
O3030      C3043   1.265       .  A
O3031      C3043   1.254       .  A
O3031     Co3036   1.997       .  S
O3032     Co3035   1.962       .  S
O3033     Co3038   1.957       .  S
O3034      C3041   1.271       .  A
Co3036     O3039   2.014       .  S
C3040      C3174   1.519       .  S
C3041      C3187   1.517       .  S
C3042      C3077   1.415       .  S
C3043      C3157   1.509       .  S
O3044      C3052   1.298       .  A
O3044     Co3064   2.102       .  S
O3045      C3053   1.255       .  A
O3045     Co3065   1.971       .  S
O3046      C3054   1.264       .  A
O3046     Co3066   2.002       .  S
O3047      C3055   1.297   1_545  A
O3048      C3054   1.268   1_545  A
O3049      C3055   1.291       .  A
O3049     Co3064   2.001       .  S
O3050     Co3067   1.938       .  S
O3051      C3052   1.284   1_455  A
C3052      C3277   1.519       .  S
C3053      C3074   1.419       .  S
C3054      C3097   1.507       .  S
C3055      C3117   1.506       .  S
O3056      C3069   1.283       .  A
O3057      C3070   1.277       .  A
O3057     Co3065   1.990       .  S
O3058     Co3066   1.891       .  S
O3059      C3072   1.283       .  A
O3060      C3072   1.275       .  A
O3060     Co3065   1.986       .  S
O3061      C3071   1.295       .  A
O3061     Co3064   2.054       .  S
O3062      C3069   1.260       .  A
O3062     Co3067   2.023       .  S
O3063      C3070   1.288       .  A
Co3065     O3068   2.055       .  S
C3069      C3254   1.530       .  S
C3070      C3267   1.488       .  S
C3071      C3087   1.432       .  S
C3072      C3107   1.510       .  S
C3073      C3078   1.365       .  A
C3073      H3080   1.086       .  S
C3074      C3075   1.403       .  A
C3075      C3076   1.368       .  A
C3075     Br3082   1.867       .  S
C3076      H3081   1.086       .  S
C3078     Br3079   1.867       .  S
C3083      C3084   1.401       .  A
C3083      C3088   1.376       .  A
C3083      H3090   1.080       .  S
C3085     Br3092   1.918       .  S
C3086      C3087   1.377   1_545  A
C3086      H3091   1.053       .  S
C3088     Br3089   1.924       .  S
C3093      C3094   1.411       .  A
C3093      C3098   1.417       .  A
C3093      H3100   1.081       .  S
C3094      C3095   1.399       .  A
C3095      C3096   1.410       .  A
C3095     Br3102   1.888       .  S
C3096      C3097   1.405       .  A
C3096      H3101   1.076       .  S
C3097      C3098   1.410       .  A
C3098     Br3099   1.921       .  S
C3103      C3104   1.408       .  A
C3103      C3108   1.417       .  A
C3103      H3110   1.083       .  S
C3104      C3105   1.418       .  A
C3105      C3106   1.409       .  A
C3105     Br3112   1.905       .  S
C3106      C3107   1.404       .  A
C3106      H3111   1.079       .  S
C3107      C3108   1.425       .  A
C3108     Br3109   1.919       .  S
C3113      C3114   1.409       .  A
C3113      C3118   1.404       .  A
C3113      H3120   1.059       .  S
C3114      C3115   1.414       .  A
C3115      C3116   1.418       .  A
C3115     Br3122   1.915       .  S
C3116      C3117   1.412       .  A
C3116      H3121   1.073       .  S
C3117      C3118   1.396       .  A
C3118     Br3119   1.906       .  S
C3123      C3124   1.406       .  A
C3123      C3128   1.383       .  A
C3123      H3130   1.078       .  S
C3124      C3125   1.398       .  A
C3125      C3126   1.372       .  A
C3125     Br3132   1.908       .  S
C3126      C3127   1.397       .  A
C3126      H3131   1.084       .  S
C3127      C3128   1.394       .  A
C3128     Br3129   1.917       .  S
C3133      C3134   1.413       .  A
C3133      C3138   1.401       .  A
C3133      H3140   1.078       .  S
C3134      C3135   1.402       .  A
C3135      C3136   1.373       .  A
C3135     Br3142   1.918       .  S
C3136      C3137   1.403       .  A
C3136      H3141   1.069       .  S
C3137      C3138   1.402       .  A
C3143      C3144   1.410       .  A
C3143      C3148   1.420       .  A
C3143      H3150   1.081       .  S
C3144      C3145   1.415       .  A
C3145      C3146   1.398       .  A
C3146      C3147   1.398       .  A
C3146      H3151   1.084       .  S
C3147      C3148   1.423       .  A
C3148     Br3149   1.915       .  S
C3153      C3154   1.410       .  A
C3153      C3158   1.414       .  A
C3153      H3160   1.075       .  S
C3154      C3155   1.407       .  A
C3155      C3156   1.408       .  A
C3155     Br3162   1.918       .  S
C3156      C3157   1.413       .  A
C3156      H3161   1.081       .  S
C3157      C3158   1.408       .  A
C3158     Br3159   1.910       .  S
C3163      C3164   1.405       .  A
C3163      C3168   1.405       .  A
C3163      H3170   1.082       .  S
C3164      C3165   1.419       .  A
C3165      C3166   1.421       .  A
C3165     Br3172   1.920       .  S
C3166      C3167   1.416       .  A
C3166      H3171   1.082       .  S
C3167      C3168   1.415       .  A
C3168     Br3169   1.898   1_565  S
C3173      C3174   1.409       .  A
C3173      C3178   1.419       .  A
C3173      H3180   1.073       .  S
C3174      C3175   1.418       .  A
C3175      C3176   1.405       .  A
C3175     Br3182   1.901       .  S
C3176      C3177   1.403       .  A
C3176      H3181   1.080       .  S
C3177      C3178   1.407       .  A
C3178     Br3179   1.898       .  S
C3183      C3184   1.414       .  A
C3183      C3188   1.417       .  A
C3183      H3190   1.082       .  S
C3184      C3185   1.411       .  A
C3185      C3186   1.416       .  A
C3185     Br3192   1.905       .  S
C3186      C3187   1.410       .  A
C3186      H3191   1.081       .  S
C3187      C3188   1.404       .  A
C3188     Br3189   1.900       .  S
C3193      C3194   1.412       .  A
C3193      C3198   1.420       .  A
C3193      H3200   1.074       .  S
C3194      C3195   1.411       .  A
C3195      C3196   1.397       .  A
C3196      C3197   1.404       .  A
C3196      H3201   1.084       .  S
C3197      C3198   1.416       .  A
C3198     Br3199   1.913       .  S
C3203      C3208   1.420       .  A
C3204      C3205   1.420       .  A
C3205     Br3212   1.884       .  S
C3206      C3207   1.389       .  A
C3206      H3211   1.083       .  S
C3207      C3208   1.410       .  A
C3208     Br3209   1.893       .  S
C3213      C3214   1.408       .  A
C3213      H3220   1.079       .  S
C3215      C3216   1.426       .  A
C3215     Br3222   1.917       .  S
C3216      C3217   1.411       .  A
C3216      H3221   1.076       .  S
C3217      C3218   1.427       .  A
C3223      C3224   1.409       .  A
C3223      C3228   1.416       .  A
C3223      H3230   1.083       .  S
C3224      C3225   1.418       .  A
C3225      C3226   1.415       .  A
C3225     Br3232   1.919       .  S
C3226      C3227   1.411       .  A
C3226      H3231   1.083       .  S
C3227      C3228   1.423       .  A
C3228     Br3229   1.920       .  S
C3233      C3234   1.414       .  A
C3233      C3238   1.381       .  A
C3233      H3240   1.082       .  S
C3234      C3235   1.398       .  A
C3235      C3236   1.367       .  A
C3236      C3237   1.381       .  A
C3236      H3241   1.081       .  S
C3237      C3238   1.392       .  A
C3238     Br3239   1.917       .  S
C3243      C3244   1.390       .  A
C3243      C3248   1.377       .  A
C3243      H3250   1.069       .  S
C3244      C3245   1.395       .  A
C3245      C3246   1.377       .  A
C3245     Br3252   1.920       .  S
C3246      C3247   1.402       .  A
C3246      H3251   1.080       .  S
C3247      C3248   1.400       .  A
C3248     Br3249   1.918       .  S
C3253      C3254   1.406       .  A
C3253      C3258   1.415       .  A
C3253      H3260   1.069       .  S
C3254      C3255   1.423       .  A
C3255      C3256   1.411       .  A
C3256      C3257   1.410       .  A
C3256      H3261   1.074       .  S
C3257      C3258   1.423       .  A
C3258     Br3259   1.924       .  S
C3263      C3264   1.404       .  A
C3263      C3268   1.403       .  A
C3263      H3270   1.082       .  S
C3264      C3265   1.414       .  A
C3265      C3266   1.405       .  A
C3265     Br3272   1.912       .  S
C3266      C3267   1.404       .  A
C3266      H3271   1.083       .  S
C3267      C3268   1.408       .  A
C3268     Br3269   1.904       .  S
C3273      C3274   1.411       .  A
C3273      C3278   1.413       .  A
C3273      H3280   1.080       .  S
C3274      C3275   1.409       .  A
C3275      C3276   1.410       .  A
C3275     Br3282   1.915       .  S
C3276      C3277   1.410       .  A
C3276      H3281   1.074       .  S
C3277      C3278   1.406       .  A
C3278     Br3279   1.888       .  S
C3283      C3284   1.408       .  A
C3283      H3290   1.067       .  S
C3284      C3285   1.424       .  A
C3285     Br3292   1.900       .  S
C3286      C3287   1.405   1_545  A
C3286      H3291   1.083       .  S
C3287      C3288   1.403       .  A
C3288     Br3289   1.906       .  S
C3293      C3294   1.401   1_455  A
C3293      H3300   1.081   1_455  S
C3294      C3295   1.418   1_655  A
C3295     Br3302   1.927   1_455  S
C3296      C3297   1.408   1_554  A
C3296      H3301   1.078   1_554  S
C3297      C3298   1.417   1_556  A
C3298     Br3299   1.897       .  S
C3303      C3308   1.411       .  A
C3303      H3310   1.080       .  S
C3304      C3305   1.423       .  A
C3305     Br3312   1.919       .  S
C3306      C3307   1.407       .  A
C3306      H3311   1.083       .  S
C3307      C3308   1.420       .  A
C3308     Br3309   1.923       .  S
