geometry optimzed in LAMMPS
_audit_creation_date              2020-11-30 
_audit_creation_method            'lammps2cif' 
_symmetry_space_group_name_H-M    'P1' 
_symmetry_Int_Tables_number       1 
_symmetry_cell_setting            triclinic 
loop_ 
_symmetry_equiv_pos_as_xyz 
  x,y,z 
_cell_length_a                    45.77163966114077 
_cell_length_b                    44.50504137005813 
_cell_length_c                    25.780571649957697 
_cell_angle_alpha                 90.25941810587082 
_cell_angle_beta                  89.82753961770787 
_cell_angle_gamma                 93.02403073134775 
loop_ 
_atom_site_label 
_atom_site_type_symbol 
_atom_site_fract_x 
_atom_site_fract_y 
_atom_site_fract_z 
_atom_site_charge 
In1        In  0.12295111  0.30892832  0.12291088     1.36870
C2          C  0.12336272  0.34982113  0.05060318     0.77210
O3          O  0.09866447  0.34692081  0.15016497    -0.61230
O4          O  0.14096981  0.34209760  0.18207802    -0.52150
C5          C  0.07845052  0.28140075  0.17054235     0.69880
O6          O  0.07926511  0.28315155  0.12144986    -0.47000
C7          C  0.17089562  0.28644787  0.08677342     0.74580
O8          O  0.10218202  0.33026506  0.05371533    -0.58860
O9          O  0.16874142  0.29439365  0.13384812    -0.48950
O10         O  0.14466409  0.34555639  0.07966806    -0.55290
C11         C  0.11936510  0.35853838  0.17642895     0.84760
O12         O  0.10295843  0.28593251  0.19269069    -0.57190
O13         O  0.14677196  0.28301676  0.06289802    -0.60480
In14       In  0.12559307  0.02592212  0.29078466     1.36870
C15         C  0.12428508  0.47501781  0.00868398     0.77210
O16         O  0.10268079  0.49183437  0.24270121    -0.61230
O17         O  0.14738247  0.50263495  0.22436841    -0.52150
C18         C  0.08018463  0.05280329  0.25587499     0.69880
O19         O  0.08155787  0.04427250  0.30261701    -0.47000
C20         C  0.17121180  0.05129953  0.33814826     0.74580
O21         O  0.10298428  0.49205489  0.01119076    -0.58860
O22         O  0.16999700  0.05003365  0.28905060    -0.48950
O23         O  0.14702449  0.48693938  0.32182246    -0.55290
C24         C  0.12525235  0.48451868  0.21903942     0.84760
O25         O  0.10448836  0.05497417  0.23212744    -0.57190
O26         O  0.14690489  0.04673645  0.36117685    -0.60480
In27       In  0.23053660  0.17079010  0.20824087     1.36870
C28         C  0.18387024  0.17179127  0.15086816     0.77210
O29         O  0.25358442  0.14988682  0.14119491    -0.61230
O30         O  0.24738341  0.12487363  0.21153804    -0.52150
C31         C  0.25953151  0.21571786  0.25382317     0.69880
O32         O  0.25494915  0.21594203  0.20526237    -0.47000
C33         C  0.18683564  0.17296980  0.27295792     0.74580
O34         O  0.20292705  0.19357849  0.14988967    -0.58860
O35         O  0.20143404  0.14950584  0.27008956    -0.48950
O36         O  0.19200041  0.14826308  0.17196972    -0.55290
C37         C  0.25329021  0.12451905  0.16345777     0.84760
O38         O  0.25678641  0.18999617  0.27474387    -0.57190
O39         O  0.19819104  0.19551959  0.25022695    -0.60480
In40       In  0.01877759  0.17124936  0.05216724     1.36870
C41         C  0.06545380  0.16803657  0.32830859     0.77210
O42         O  0.49601980  0.18776602  0.31520531    -0.61230
O43         O  0.99419924  0.21355570  0.05187792    -0.52150
C44         C  0.49341664  0.12346640  0.09600455     0.69880
O45         O  0.99888963  0.12423278  0.04777629    -0.47000
C46         C  0.06173168  0.18014287  0.11763111     0.74580
O47         O  0.04821860  0.14514680  0.33424696    -0.58860
O48         O  0.04711595  0.20210151  0.10383431    -0.48950
O49         O  0.05579188  0.19246064  0.34338845    -0.55290
C50         C  0.49159638  0.21287740  0.00290052     0.84760
O51         O  0.49441530  0.14890082  0.11846629    -0.57190
O52         O  0.05091245  0.15472968  0.10525174    -0.60480
In53       In  0.37504462  0.06042299  0.28936803     1.36870
C54         C  0.37270611  0.09776822  0.21199001     0.77170
O55         O  0.35496746  0.10142104  0.31714003    -0.61230
O56         O  0.39923797  0.09627286  0.33725258    -0.52150
C57         C  0.32987717  0.03563270  0.33991718     0.69880
O58         O  0.33126180  0.03479490  0.29083635    -0.47000
C59         C  0.42130000  0.03409078  0.25591868     0.74580
O60         O  0.35085545  0.08011036  0.22237536    -0.58860
O61         O  0.41944646  0.04291879  0.30257539    -0.48950
O62         O  0.39599773  0.09169688  0.23418332    -0.55290
C63         C  0.37839811  0.11375459  0.00056870     0.84760
O64         O  0.35397045  0.04223684  0.36229378    -0.57190
O65         O  0.39715708  0.03115838  0.23205235    -0.60480
In66       In  0.37827176  0.27513421  0.11643976     1.36870
C67         C  0.38130257  0.23898759  0.03651695     0.77210
O68         O  0.40014641  0.23463911  0.13918668    -0.61230
O69         O  0.35707767  0.23925871  0.16768301    -0.52150
C70         C  0.42201472  0.30024801  0.17029776     0.69880
O71         O  0.42153452  0.30175159  0.12121593    -0.47000
C72         C  0.33059302  0.30040350  0.08590567     0.74580
O73         O  0.40255762  0.25744862  0.04693915    -0.58860
O74         O  0.33255635  0.28874832  0.13037282    -0.48950
O75         O  0.35828918  0.24289984  0.06156561    -0.55290
C76         C  0.37840180  0.22248300  0.16195258     0.84760
O77         O  0.39763777  0.29285652  0.19108951    -0.57190
O78         O  0.35483347  0.30581888  0.06298647    -0.60480
In79       In  0.26978379  0.41902362  0.21184547     1.36870
C80         C  0.31568544  0.42487705  0.27194854     0.77210
O81         O  0.24691922  0.39960500  0.28175640    -0.61230
O82         O  0.24472166  0.37435068  0.21093638    -0.52150
C83         C  0.24498311  0.46377081  0.16702426     0.69880
O84         O  0.25060178  0.46406068  0.21516452    -0.47000
C85         C  0.31359961  0.41198888  0.14950806     0.74580
O86         O  0.30155837  0.44767220  0.26092257    -0.58860
O87         O  0.29598345  0.38989847  0.15938711    -0.48950
O88         O  0.30350439  0.40010137  0.25929070    -0.55290
C89         C  0.24244227  0.37419583  0.25998209     0.84760
O90         O  0.24555817  0.43823467  0.14522881    -0.57190
O91         O  0.30506000  0.43721908  0.16275940    -0.60480
In92       In  0.48223100  0.41719739  0.04398834     1.36870
C93         C  0.43765006  0.41734230  0.31409623     0.77210
O94         O  0.00764121  0.39793910  0.31160164    -0.61230
O95         O  0.50335746  0.37294939  0.04880380    -0.52150
C96         C  0.00811368  0.46377087  0.09162872     0.69880
O97         O  0.50380491  0.46370543  0.04299106    -0.47000
C98         C  0.43610134  0.41638921  0.10384449     0.74580
O99         O  0.45602824  0.43968644  0.31602434    -0.58860
O100        O  0.45080871  0.39306845  0.09979177    -0.48950
O101        O  0.44565541  0.39399642  0.33601370    -0.55290
C102        C  0.00893577  0.37272688  0.00055686     0.84760
O103        O  0.00586964  0.43805634  0.11271072    -0.57190
O104        O  0.44844555  0.43984001  0.08583460    -0.60480
In105      In  0.50089929  0.04326267  0.17650669     1.36870
C106        C  0.50962514  0.49201055  0.12242406     0.77210
O107        O  0.04976415  0.05706022  0.18013851    -0.61230
O108        O  0.02802707  0.04571854  0.25003746    -0.52150
C109        C  0.99199486  0.09488259  0.12510564     0.69880
O110        O  0.99324791  0.06972361  0.10309889    -0.47000
C111        C  0.44975647  0.03348976  0.22849998     0.74580
O112        O  0.50908598  0.01752336  0.10183305    -0.58860
O113        O  0.47365741  0.04063039  0.25034595    -0.48950
O114        O  0.50727480  0.49264800  0.17117298    -0.55290
C115        C  0.05189825  0.05337929  0.22839679     0.84760
O116        O  0.99373831  0.09365859  0.17382377    -0.57190
O117        O  0.45199987  0.02994974  0.18012357    -0.60480
In118      In  0.50019286  0.29198980  0.25145670     1.36870
C119        C  0.99007418  0.24062040  0.30530907     0.77210
O120        O  0.02578930  0.27946268  0.17880484    -0.61230
O121        O  0.04953245  0.28706394  0.24790750    -0.52150
C122        C  0.44964514  0.30102235  0.20025678     0.69880
O123        O  0.45056158  0.29354932  0.24726327    -0.47000
C124        C  0.51035914  0.34426505  0.30422826     0.74580
O125        O  0.49317630  0.24104790  0.25666589    -0.58860
O126        O  0.50878164  0.34298314  0.25543725    -0.48950
O127        O  0.99022626  0.26633795  0.32582796    -0.55290
C128        C  0.05055295  0.28113186  0.20009798     0.84760
O129        O  0.47452617  0.30512443  0.17975890    -0.57190
O130        O  0.50865161  0.31889385  0.32563172    -0.60480
In131      In  0.25002839  0.04341001  0.08355224     1.36870
C132        C  0.24282406  0.49184705  0.13740568     0.77210
O133        O  0.20061536  0.04592474  0.08088205    -0.61230
O134        O  0.22388812  0.05421155  0.01125440    -0.52150
C135        C  0.25580800  0.09600737  0.13488787     0.69880
O136        O  0.25244148  0.07093006  0.15700838    -0.47000
C137        C  0.30163383  0.03491928  0.03496181     0.74580
O138        O  0.24680444  0.01729268  0.15835757    -0.58860
O139        O  0.27719576  0.03055513  0.01308409    -0.48950
O140        O  0.24081143  0.49263082  0.08863860    -0.55290
C141        C  0.19926882  0.05183981  0.03325645     0.84760
O142        O  0.25806054  0.09436430  0.08618319    -0.57190
O143        O  0.29972893  0.04261842  0.08188126    -0.60480
In144      In  0.25083370  0.29423919  0.00750328     1.36870
C145        C  0.24137796  0.34586392  0.28989804     0.77210
O146        O  0.27849931  0.29199447  0.08004017    -0.61230
O147        O  0.29936402  0.30921853  0.01261216    -0.52150
C148        C  0.19951174  0.28589209  0.05971979     0.69880
O149        O  0.20211345  0.28004558  0.01209987    -0.47000
C150        C  0.26067562  0.24370945  0.28536116     0.74580
O151        O  0.24696866  0.34504488  0.33772002    -0.58860
O152        O  0.25624010  0.24370317  0.33366276    -0.48950
O153        O  0.23923022  0.32033199  0.26868580    -0.55290
C154        C  0.30202615  0.30192457  0.05949646     0.84760
O155        O  0.22316737  0.29472500  0.08092331    -0.57190
O156        O  0.26153191  0.26957750  0.26575287    -0.60480
C157        C  0.38635477  0.40012600  0.32526880    -0.20680
C158        C  0.40675681  0.41930200  0.29894677    -0.07240
C159        C  0.39667035  0.44164072  0.26598867     0.13630
C160        C  0.36640962  0.44520317  0.26209460    -0.20730
C161        C  0.34619575  0.42603881  0.28890388    -0.07250
C162        C  0.35634215  0.40294630  0.32024801     0.13620
C163        C  0.33565042  0.38079784  0.01462823    -0.24080
H164        H  0.39385365  0.38287593  0.01744036     0.14900
H165        H  0.35846446  0.46164561  0.23541069     0.14930
C166        C  0.41758547  0.46029187  0.23280296    -0.24030
H167        H  0.34735142  0.36665241  0.04221825     0.05140
H168        H  0.32445672  0.36532635  0.98637418     0.08370
H169        H  0.31906201  0.39298734  0.03666139     0.08370
H170        H  0.43101913  0.44535960  0.20907036     0.08350
H171        H  0.43223428  0.47467761  0.25763558     0.08350
H172        H  0.40587614  0.47490483  0.20603283     0.05130
C173        C  0.35696613  0.43577204  0.11015914    -0.20680
C174        C  0.34392455  0.40978726  0.13221200    -0.07240
C175        C  0.36159036  0.38639697  0.14812907     0.13630
C176        C  0.39189955  0.38936339  0.13977166    -0.20730
C177        C  0.40499122  0.41580730  0.11872685    -0.07250
C178        C  0.38710718  0.43966333  0.10445218     0.13620
C179        C  0.39884379  0.46944593  0.08253908    -0.24080
H180        H  0.34333239  0.45386561  0.09893283     0.14900
H181        H  0.40546799  0.37112162  0.15036254     0.14930
C182        C  0.34899887  0.35906675  0.17607354    -0.24030
H183        H  0.38129475  0.48534684  0.07616718     0.05140
H184        H  0.40934218  0.46605227  0.04431523     0.08370
H185        H  0.41469733  0.48054141  0.10995758     0.08370
H186        H  0.33162994  0.34771471  0.15219484     0.08350
H187        H  0.33962917  0.36578175  0.21378301     0.08350
H188        H  0.36586566  0.34268914  0.18405333     0.05130
C189        C  0.40886912  0.19439754  0.02114241    -0.20680
C190        C  0.38416075  0.21035251  0.00927815    -0.07240
C191        C  0.35886183  0.19460773  0.99038668     0.13630
C192        C  0.35754340  0.16324308  0.99062166    -0.20730
C193        C  0.38133565  0.14688035  0.00671278    -0.07250
C194        C  0.40772349  0.16278282  0.02047426     0.13620
C195        C  0.43432551  0.14686946  0.03642220    -0.24080
H196        H  0.42831871  0.20661243  0.03546860     0.14900
H197        H  0.33741522  0.15153859  0.97848082     0.14930
C198        C  0.33291414  0.21074825  0.97072110    -0.24030
H199        H  0.45197669  0.16312164  0.04920282     0.05140
H200        H  0.44269961  0.13388144  0.00319597     0.08370
H201        H  0.42892952  0.13163753  0.06944417     0.08370
H202        H  0.34026214  0.22738718  0.27419613     0.08350
H203        H  0.32168337  0.22236031  0.00256084     0.08350
H204        H  0.31648269  0.19481024  0.95253079     0.05130
C205        C  0.39833583  0.14139533  0.17321686    -0.20680
C206        C  0.37133280  0.12716228  0.18657507    -0.07240
C207        C  0.34661955  0.14464850  0.19186051     0.13630
C208        C  0.34961739  0.17578290  0.18394688    -0.20730
C209        C  0.37702748  0.19013411  0.17403332    -0.07250
C210        C  0.40189707  0.17262333  0.16942926     0.13620
C211        C  0.43263907  0.18634537  0.16391775    -0.24080
H212        H  0.41750309  0.12812828  0.17033645     0.14900
H213        H  0.33047093  0.18907245  0.18658072     0.14930
C214        C  0.31735637  0.13110693  0.20816987    -0.24030
H215        H  0.44924363  0.16918280  0.16725468     0.05140
H216        H  0.43709041  0.20316668  0.19523462     0.08370
H217        H  0.43580088  0.19707305  0.12553629     0.08370
H218        H  0.31844912  0.12070987  0.24695982     0.08350
H219        H  0.31011078  0.11368475  0.17948796     0.08350
H220        H  0.30098281  0.14853704  0.21086588     0.05130
C221        C  0.11185159  0.20126608  0.10642966    -0.20680
C222        C  0.09204968  0.18269638  0.13532233    -0.07240
C223        C  0.10268430  0.16006301  0.16716452     0.13630
C224        C  0.13272006  0.15676358  0.16979079    -0.20730
C225        C  0.15257898  0.17482044  0.14027867    -0.07250
C226        C  0.14203732  0.19695645  0.10765203     0.13620
C227        C  0.16242115  0.21427659  0.07176111    -0.24080
H228        H  0.10353479  0.21738330  0.07952650     0.14900
H229        H  0.14066533  0.13970235  0.19518893     0.14930
C230        C  0.08242276  0.13842020  0.19693875    -0.24030
H231        H  0.15033554  0.22817192  0.04448257     0.05140
H232        H  0.17526785  0.19851492  0.04872757     0.08370
H233        H  0.17783029  0.22891198  0.09463574     0.08370
H234        H  0.07051911  0.12257584  0.17017607     0.08350
H235        H  0.06639793  0.15106804  0.21948966     0.08350
H236        H  0.09458838  0.12445429  0.22414287     0.05130
C237        C  0.10860548  0.19381195  0.29084187    -0.20680
C238        C  0.09600327  0.16724206  0.31160149    -0.07240
C239        C  0.11390693  0.14348462  0.32455948     0.13630
C240        C  0.14394640  0.14650923  0.31389974    -0.20730
C241        C  0.15651032  0.17299607  0.29210803    -0.07250
C242        C  0.13849833  0.19733244  0.28132470     0.13620
C243        C  0.14987341  0.22719621  0.25931253    -0.24080
H244        H  0.09480744  0.21225083  0.28232519     0.14900
H245        H  0.15761248  0.12794275  0.98877154     0.14930
C246        C  0.10176368  0.11536743  0.01749953    -0.24030
H247        H  0.13256091  0.24372487  0.25719021     0.05140
H248        H  0.15806012  0.22420072  0.21918595     0.08370
H249        H  0.16749179  0.23725725  0.28441674     0.08370
H250        H  0.08490657  0.10391289  0.99253212     0.08350
H251        H  0.09193756  0.12119938  0.05539088     0.08350
H252        H  0.11900047  0.09930473  0.02492838     0.05130
C253        C  0.14790744  0.42671360  0.00947148    -0.20680
C254        C  0.12257444  0.44234640  0.01947183    -0.07240
C255        C  0.09610776  0.42571018  0.03025846     0.13630
C256        C  0.09603603  0.39422395  0.03305848    -0.20730
C257        C  0.12175538  0.37906069  0.02554957    -0.07250
C258        C  0.14769699  0.39540944  0.01115864     0.13620
C259        C  0.17531360  0.38002446  0.99740284    -0.24080
H260        H  0.16825280  0.43899439  0.99994138     0.14900
H261        H  0.07624012  0.38155742  0.04477299     0.14930
C262        C  0.06802971  0.44068914  0.03995647    -0.24030
H263        H  0.19228648  0.39632285  0.98193922     0.05140
H264        H  0.17053519  0.36274748  0.96697127     0.08370
H265        H  0.18478876  0.36936707  0.03180033     0.08370
H266        H  0.06133469  0.45259521  0.00453409     0.08350
H267        H  0.07078860  0.45673201  0.07289478     0.08350
H268        H  0.05021656  0.42393378  0.05013823     0.05130
C269        C  0.14754694  0.40525160  0.19905978    -0.20680
C270        C  0.12014104  0.39066034  0.19009320    -0.07240
C271        C  0.09521655  0.40799449  0.18455853     0.13630
C272        C  0.09868481  0.43928467  0.18724417    -0.20730
C273        C  0.12592476  0.45389481  0.19772116    -0.07250
C274        C  0.15073592  0.43660324  0.20333887     0.13620
C275        C  0.18050330  0.45073789  0.21509153    -0.24080
H276        H  0.16674334  0.39208565  0.20212503     0.14900
H277        H  0.07951010  0.45248744  0.18405698     0.14930
C278        C  0.06462591  0.39408583  0.17757806    -0.24030
H279        H  0.19722182  0.43360095  0.21717681     0.05140
H280        H  0.18055234  0.46253863  0.25295663     0.08370
H281        H  0.18675299  0.46700915  0.18405359     0.08370
H282        H  0.05978294  0.37714724  0.20834187     0.08350
H283        H  0.06219158  0.38349524  0.13873787     0.08350
H284        H  0.04781617  0.41114227  0.18038428     0.05130
In285      In  0.12295111  0.30892831  0.45624428     1.36870
C286        C  0.12336270  0.34982107  0.38393650     0.77210
O287        O  0.09866447  0.34692081  0.48349831    -0.61230
O288        O  0.14096980  0.34209761  0.51541139    -0.52150
C289        C  0.07845053  0.28140074  0.50387578     0.69880
O290        O  0.07926512  0.28315152  0.45478328    -0.47000
C291        C  0.17089563  0.28644787  0.42010683     0.74580
O292        O  0.10218201  0.33026500  0.38704869    -0.58860
O293        O  0.16874143  0.29439367  0.46718152    -0.48950
O294        O  0.14466408  0.34555636  0.41300139    -0.55290
C295        C  0.11936510  0.35853838  0.50976229     0.84760
O296        O  0.10295844  0.28593251  0.52602411    -0.57190
O297        O  0.14677197  0.28301673  0.39623144    -0.60480
In298      In  0.12559306  0.02592204  0.62411809     1.36870
C299        C  0.12428508  0.47501774  0.34201734     0.77210
O300        O  0.10268077  0.49183438  0.57603453    -0.61230
O301        O  0.14738244  0.50263496  0.55770170    -0.52150
C302        C  0.08018463  0.05280324  0.58920841     0.69880
O303        O  0.08155786  0.04427245  0.63595043    -0.47000
C304        C  0.17121180  0.05129946  0.67148166     0.74580
O305        O  0.10298429  0.49205483  0.34452416    -0.58860
O306        O  0.16999700  0.05003356  0.62238400    -0.48950
O307        O  0.14702447  0.48693941  0.65515577    -0.55290
C308        C  0.12525232  0.48451868  0.55237273     0.84760
O309        O  0.10448836  0.05497410  0.56546086    -0.57190
O310        O  0.14690489  0.04673638  0.69451026    -0.60480
In311      In  0.23053660  0.17079014  0.54157423     1.36870
C312        C  0.18387021  0.17179136  0.48420160     0.77210
O313        O  0.25358439  0.14988685  0.47452824    -0.61230
O314        O  0.24738340  0.12487366  0.54487137    -0.52150
C315        C  0.25953152  0.21571789  0.58715650     0.69880
O316        O  0.25494915  0.21594207  0.53859570    -0.47000
C317        C  0.18683568  0.17296983  0.60629139     0.74580
O318        O  0.20292704  0.19357856  0.48322309    -0.58860
O319        O  0.20143406  0.14950587  0.60342296    -0.48950
O320        O  0.19200037  0.14826316  0.50530314    -0.55290
C321        C  0.25329019  0.12451909  0.49679110     0.84760
O322        O  0.25678644  0.18999620  0.60807720    -0.57190
O323        O  0.19819107  0.19551962  0.58356042    -0.60480
In324      In  0.01877759  0.17124940  0.38550060     1.36870
C325        C  0.06545385  0.16803659  0.66164215     0.77210
O326        O  0.49601986  0.18776605  0.64853879    -0.61230
O327        O  0.99419922  0.21355573  0.38521125    -0.52150
C328        C  0.49341668  0.12346640  0.42933789     0.69880
O329        O  0.99888964  0.12423281  0.38110968    -0.47000
C330        C  0.06173167  0.18014298  0.45096446     0.74580
O331        O  0.04821864  0.14514682  0.66758042    -0.58860
O332        O  0.04711592  0.20210160  0.43716762    -0.48950
O333        O  0.05579192  0.19246065  0.67672206    -0.55290
C334        C  0.49159634  0.21287738  0.33623378     0.84760
O335        O  0.49441535  0.14890083  0.45179961    -0.57190
O336        O  0.05091246  0.15472978  0.43858512    -0.60480
In337      In  0.37504463  0.06042299  0.62270139     1.36870
C338        C  0.37270610  0.09776821  0.54532336     0.77170
O339        O  0.35496747  0.10142104  0.65047340    -0.61230
O340        O  0.39923798  0.09627286  0.67058593    -0.52150
C341        C  0.32987718  0.03563268  0.67325054     0.69880
O342        O  0.33126181  0.03479489  0.62416971    -0.47000
C343        C  0.42130001  0.03409079  0.58925205     0.74580
O344        O  0.35085544  0.08011035  0.55570874    -0.58860
O345        O  0.41944647  0.04291879  0.63590876    -0.48950
O346        O  0.39599772  0.09169688  0.56751666    -0.55290
C347        C  0.37839813  0.11375460  0.33390198     0.84760
O348        O  0.35397047  0.04223683  0.69562714    -0.57190
O349        O  0.39715710  0.03115840  0.56538571    -0.60480
In350      In  0.37827177  0.27513420  0.44977313     1.36870
C351        C  0.38130259  0.23898759  0.36985031     0.77210
O352        O  0.40014641  0.23463909  0.47252005    -0.61230
O353        O  0.35707767  0.23925870  0.50101637    -0.52150
C354        C  0.42201473  0.30024800  0.50363114     0.69880
O355        O  0.42153453  0.30175158  0.45454932    -0.47000
C356        C  0.33059303  0.30040348  0.41923903     0.74580
O357        O  0.40255765  0.25744862  0.38027253    -0.58860
O358        O  0.33255635  0.28874830  0.46370617    -0.48950
O359        O  0.35828920  0.24289983  0.39489895    -0.55290
C360        C  0.37840180  0.22248299  0.49528594     0.84760
O361        O  0.39763777  0.29285650  0.52442289    -0.57190
O362        O  0.35483348  0.30581887  0.39631984    -0.60480
In363      In  0.26978377  0.41902364  0.54517885     1.36870
C364        C  0.31568543  0.42487710  0.60528189     0.77210
O365        O  0.24691921  0.39960503  0.61508980    -0.61230
O366        O  0.24472161  0.37435072  0.54426977    -0.52150
C367        C  0.24498309  0.46377084  0.50035767     0.69880
O368        O  0.25060176  0.46406070  0.54849793    -0.47000
C369        C  0.31359956  0.41198885  0.48284141     0.74580
O370        O  0.30155836  0.44767224  0.59425589    -0.58860
O371        O  0.29598340  0.38989845  0.49272053    -0.48950
O372        O  0.30350437  0.40010141  0.59262410    -0.55290
C373        C  0.24244225  0.37419586  0.59331549     0.84760
O374        O  0.24555815  0.43823470  0.47856222    -0.57190
O375        O  0.30505995  0.43721906  0.49609271    -0.60480
In376      In  0.48223097  0.41719734  0.37732176     1.36870
C377        C  0.43765005  0.41734236  0.64742952     0.77210
O378        O  0.00764121  0.39793912  0.64493498    -0.61230
O379        O  0.50335743  0.37294933  0.38213719    -0.52150
C380        C  0.00811367  0.46377090  0.42496199     0.69880
O381        O  0.50380488  0.46370537  0.37632455    -0.47000
C382        C  0.43610129  0.41638915  0.43717785     0.74580
O383        O  0.45602824  0.43968649  0.64935759    -0.58860
O384        O  0.45080866  0.39306838  0.43312515    -0.48950
O385        O  0.44565541  0.39399648  0.66934701    -0.55290
C386        C  0.00893576  0.37272691  0.33389015     0.84760
O387        O  0.00586963  0.43805637  0.44604400    -0.57190
O388        O  0.44844550  0.43983994  0.41916798    -0.60480
In389      In  0.50089932  0.04326267  0.50984008     1.36870
C390        C  0.50962508  0.49201047  0.45575759     0.77210
O391        O  0.04976417  0.05706021  0.51347192    -0.61230
O392        O  0.02802707  0.04571853  0.58337085    -0.52150
C393        C  0.99199489  0.09488262  0.45843903     0.69880
O394        O  0.99324793  0.06972365  0.43643228    -0.47000
C395        C  0.44975649  0.03348978  0.56183335     0.74580
O396        O  0.50908598  0.01752334  0.43516645    -0.58860
O397        O  0.47365743  0.04063039  0.58367933    -0.48950
O398        O  0.50727472  0.49264790  0.50450651    -0.55290
C399        C  0.05189825  0.05337927  0.56173020     0.84760
O400        O  0.99373833  0.09365862  0.50715715    -0.57190
O401        O  0.45199989  0.02994977  0.51345693    -0.60480
In402      In  0.50019287  0.29198981  0.58479010     1.36870
C403        C  0.99007421  0.24062040  0.63864251     0.77210
O404        O  0.02578930  0.27946267  0.51213828    -0.61230
O405        O  0.04953246  0.28706395  0.58124092    -0.52150
C406        C  0.44964515  0.30102234  0.53359017     0.69880
O407        O  0.45056159  0.29354930  0.58059667    -0.47000
C408        C  0.51035914  0.34426508  0.63756161     0.74580
O409        O  0.49317633  0.24104791  0.58999934    -0.58860
O410        O  0.50878165  0.34298315  0.58877059    -0.48950
O411        O  0.99022629  0.26633795  0.65916140    -0.55290
C412        C  0.05055296  0.28113186  0.53343141     0.84760
O413        O  0.47452618  0.30512442  0.51309229    -0.57190
O414        O  0.50865160  0.31889389  0.65896509    -0.60480
In415      In  0.25002839  0.04341005  0.41688557     1.36870
C416        C  0.24282406  0.49184708  0.47073909     0.77210
O417        O  0.20061536  0.04592479  0.41421538    -0.61230
O418        O  0.22388812  0.05421159  0.34458773    -0.52150
C419        C  0.25580799  0.09600741  0.46822119     0.69880
O420        O  0.25244149  0.07093009  0.49034171    -0.47000
C421        C  0.30163383  0.03491931  0.36829515     0.74580
O422        O  0.24680444  0.01729272  0.49169091    -0.58860
O423        O  0.27719576  0.03055515  0.34641743    -0.48950
O424        O  0.24081143  0.49263085  0.42197201    -0.55290
C425        C  0.19926882  0.05183986  0.36658979     0.84760
O426        O  0.25806052  0.09436434  0.41951651    -0.57190
O427        O  0.29972893  0.04261846  0.41521459    -0.60480
In428      In  0.25083370  0.29423919  0.34083664     1.36870
C429        C  0.24137795  0.34586394  0.62323141     0.77210
O430        O  0.27849932  0.29199445  0.41337352    -0.61230
O431        O  0.29936403  0.30921852  0.34594552    -0.52150
C432        C  0.19951175  0.28589210  0.39305318     0.69880
O433        O  0.20211346  0.28004556  0.34543327    -0.47000
C434        C  0.26067564  0.24370948  0.61869449     0.74580
O435        O  0.24696866  0.34504490  0.67105339    -0.58860
O436        O  0.25624012  0.24370320  0.66699609    -0.48950
O437        O  0.23923021  0.32033202  0.60201916    -0.55290
C438        C  0.30202616  0.30192455  0.39282982     0.84760
O439        O  0.22316738  0.29472504  0.41425667    -0.57190
O440        O  0.26153192  0.26957753  0.59908620    -0.60480
C441        C  0.38635477  0.40012607  0.65860216    -0.20680
C442        C  0.40675680  0.41930205  0.63228009    -0.07240
C443        C  0.39667034  0.44164075  0.59932195     0.13630
C444        C  0.36640960  0.44520320  0.59542790    -0.20730
C445        C  0.34619574  0.42603886  0.62223721    -0.07250
C446        C  0.35634214  0.40294637  0.65358138     0.13620
C447        C  0.33565040  0.38079781  0.34796153    -0.24080
H448        H  0.39385363  0.38287589  0.35077370     0.14900
H449        H  0.35846444  0.46164564  0.56874397     0.14930
C450        C  0.41758545  0.46029189  0.56613620    -0.24030
H451        H  0.34735140  0.36665237  0.37555157     0.05140
H452        H  0.32445670  0.36532632  0.31970748     0.08370
H453        H  0.31906199  0.39298732  0.36999468     0.08370
H454        H  0.43101909  0.44535959  0.54240359     0.08350
H455        H  0.43223428  0.47467761  0.59096879     0.08350
H456        H  0.40587611  0.47490485  0.53936608     0.05130
C457        C  0.35696607  0.43577198  0.44349244    -0.20680
C458        C  0.34392449  0.40978721  0.46554534    -0.07240
C459        C  0.36159030  0.38639692  0.48146243     0.13630
C460        C  0.39189949  0.38936334  0.47310501    -0.20730
C461        C  0.40499116  0.41580723  0.45206018    -0.07250
C462        C  0.38710712  0.43966326  0.43778547     0.13620
C463        C  0.39884374  0.46944585  0.41587235    -0.24080
H464        H  0.34333234  0.45386555  0.43226609     0.14900
H465        H  0.40546793  0.37112157  0.48369593     0.14930
C466        C  0.34899881  0.35906672  0.50940695    -0.24030
H467        H  0.38129470  0.48534676  0.40950041     0.05140
H468        H  0.40934214  0.46605218  0.37764851     0.08370
H469        H  0.41469727  0.48054135  0.44329085     0.08370
H470        H  0.33162987  0.34771467  0.48552827     0.08350
H471        H  0.33962911  0.36578173  0.54711641     0.08350
H472        H  0.36586559  0.34268910  0.51738675     0.05130
C473        C  0.40886915  0.19439754  0.35447576    -0.20680
C474        C  0.38416079  0.21035252  0.34261148    -0.07240
C475        C  0.35886187  0.19460774  0.32371997     0.13630
C476        C  0.35754343  0.16324310  0.32395492    -0.20730
C477        C  0.38133568  0.14688036  0.34004607    -0.07250
C478        C  0.40772351  0.16278282  0.35380759     0.13620
C479        C  0.43432552  0.14686946  0.36975557    -0.24080
H480        H  0.42831873  0.20661242  0.36880198     0.14900
H481        H  0.33741526  0.15153861  0.31181404     0.14930
C482        C  0.33291419  0.21074828  0.30405438    -0.24030
H483        H  0.45197669  0.16312162  0.38253622     0.05140
H484        H  0.44269963  0.13388144  0.33652934     0.08370
H485        H  0.42892951  0.13163752  0.40277753     0.08370
H486        H  0.34026212  0.22738717  0.60752951     0.08350
H487        H  0.32168341  0.22236034  0.33589411     0.08350
H488        H  0.31648274  0.19481028  0.28586405     0.05130
C489        C  0.39833581  0.14139531  0.50655019    -0.20680
C490        C  0.37133278  0.12716226  0.51990841    -0.07240
C491        C  0.34661954  0.14464849  0.52519387     0.13630
C492        C  0.34961738  0.17578289  0.51728024    -0.20730
C493        C  0.37702747  0.19013410  0.50736667    -0.07250
C494        C  0.40189706  0.17262331  0.50276260     0.13620
C495        C  0.43263906  0.18634535  0.49725109    -0.24080
H496        H  0.41750307  0.12812826  0.50366977     0.14900
H497        H  0.33047092  0.18907244  0.51991409     0.14930
C498        C  0.31735635  0.13110692  0.54150324    -0.24030
H499        H  0.44924361  0.16918277  0.50058800     0.05140
H500        H  0.43709041  0.20316664  0.52856797     0.08370
H501        H  0.43580087  0.19707303  0.45886964     0.08370
H502        H  0.31844911  0.12070987  0.58029319     0.08350
H503        H  0.31011076  0.11368474  0.51282134     0.08350
H504        H  0.30098280  0.14853703  0.54419926     0.05130
C505        C  0.11185158  0.20126617  0.43976299    -0.20680
C506        C  0.09204967  0.18269652  0.46865572    -0.07240
C507        C  0.10268427  0.16006318  0.50049801     0.13630
C508        C  0.13272003  0.15676375  0.50312432    -0.20730
C509        C  0.15257896  0.17482056  0.47361212    -0.07250
C510        C  0.14203731  0.19695652  0.44098539     0.13620
C511        C  0.16242115  0.21427659  0.40509438    -0.24080
H512        H  0.10353479  0.21738335  0.41285975     0.14900
H513        H  0.14066528  0.13970254  0.52852252     0.14930
C514        C  0.08242271  0.13842041  0.53027230    -0.24030
H515        H  0.15033555  0.22817191  0.37781579     0.05140
H516        H  0.17526781  0.19851486  0.38206089     0.08370
H517        H  0.17783033  0.22891198  0.42796893     0.08370
H518        H  0.07051905  0.12257605  0.50350967     0.08350
H519        H  0.06639791  0.15106829  0.55282318     0.08350
H520        H  0.09458832  0.12445451  0.55747643     0.05130
C521        C  0.10860554  0.19381201  0.62417553    -0.20680
C522        C  0.09600333  0.16724210  0.64493508    -0.07240
C523        C  0.11390698  0.14348464  0.65789300     0.13630
C524        C  0.14394645  0.14650925  0.64723324    -0.20730
C525        C  0.15651038  0.17299610  0.62544157    -0.07250
C526        C  0.13849839  0.19733249  0.61465834     0.13620
C527        C  0.14987348  0.22719628  0.59264622    -0.24080
H528        H  0.09480751  0.21225090  0.61565891     0.14900
H529        H  0.15761248  0.12794278  0.32210487     0.14930
C530        C  0.10176369  0.11536747  0.35083293    -0.24030
H531        H  0.13256099  0.24372495  0.59052398     0.05140
H532        H  0.15806015  0.22420082  0.55251962     0.08370
H533        H  0.16749188  0.23725727  0.61775042     0.08370
H534        H  0.08490657  0.10391291  0.32586556     0.08350
H535        H  0.09193758  0.12119944  0.38872429     0.08350
H536        H  0.11900048  0.09930478  0.35826180     0.05130
C537        C  0.14790742  0.42671351  0.34280471    -0.20680
C538        C  0.12257444  0.44234633  0.35280515    -0.07240
C539        C  0.09610775  0.42571012  0.36359183     0.13630
C540        C  0.09603601  0.39422389  0.36639183    -0.20730
C541        C  0.12175535  0.37906061  0.35888285    -0.07250
C542        C  0.14769695  0.39540935  0.34449186     0.13620
C543        C  0.17531353  0.38002436  0.33073598    -0.24080
H544        H  0.16825277  0.43899429  0.33327456     0.14900
H545        H  0.07624010  0.38155737  0.37810638     0.14930
C546        C  0.06802972  0.44068909  0.37328993    -0.24030
H547        H  0.19228642  0.39632274  0.31527234     0.05140
H548        H  0.17053509  0.36274739  0.30030441     0.08370
H549        H  0.18478871  0.36936695  0.36513344     0.08370
H550        H  0.06133467  0.45259517  0.33786758     0.08350
H551        H  0.07078865  0.45673195  0.40622825     0.08350
H552        H  0.05021657  0.42393374  0.38347173     0.05130
C553        C  0.14754692  0.40525161  0.53239311    -0.20680
C554        C  0.12014103  0.39066034  0.52342653    -0.07240
C555        C  0.09521654  0.40799448  0.51789187     0.13630
C556        C  0.09868479  0.43928467  0.52057750    -0.20730
C557        C  0.12592473  0.45389481  0.53105449    -0.07250
C558        C  0.15073590  0.43660325  0.53667220     0.13620
C559        C  0.18050327  0.45073790  0.54842486    -0.24080
H560        H  0.16674333  0.39208566  0.53545837     0.14900
H561        H  0.07951007  0.45248743  0.51739031     0.14930
C562        C  0.06462590  0.39408582  0.51091141    -0.24030
H563        H  0.19722179  0.43360097  0.55051015     0.05140
H564        H  0.18055231  0.46253865  0.58628996     0.08370
H565        H  0.18675297  0.46700916  0.51738692     0.08370
H566        H  0.05978293  0.37714723  0.54167522     0.08350
H567        H  0.06219157  0.38349522  0.47207122     0.08350
H568        H  0.04781615  0.41114226  0.51371761     0.05130
In569      In  0.12295111  0.30892831  0.78957758     1.36870
C570        C  0.12336270  0.34982110  0.71726986     0.77210
O571        O  0.09866444  0.34692080  0.81683165    -0.61230
O572        O  0.14096978  0.34209759  0.84874475    -0.52150
C573        C  0.07845052  0.28140072  0.83720904     0.69880
O574        O  0.07926511  0.28315153  0.78811655    -0.47000
C575        C  0.17089563  0.28644789  0.75344012     0.74580
O576        O  0.10218202  0.33026502  0.72038200    -0.58860
O577        O  0.16874142  0.29439366  0.80051482    -0.48950
O578        O  0.14466407  0.34555639  0.74633477    -0.55290
C579        C  0.11936507  0.35853836  0.84309566     0.84760
O580        O  0.10295843  0.28593248  0.85935737    -0.57190
O581        O  0.14677198  0.28301678  0.72956472    -0.60480
In582      In  0.12559307  0.02592205  0.95745133     1.36870
C583        C  0.12428507  0.47501777  0.67535066     0.77210
O584        O  0.10268076  0.49183438  0.90936788    -0.61230
O585        O  0.14738242  0.50263494  0.89103498    -0.52150
C586        C  0.08018463  0.05280323  0.92254166     0.69880
O587        O  0.08155786  0.04427243  0.96928368    -0.47000
C588        C  0.17121180  0.05129947  0.00481492     0.74580
O589        O  0.10298427  0.49205485  0.67785746    -0.58860
O590        O  0.16999700  0.05003358  0.95571726    -0.48950
O591        O  0.14702449  0.48693944  0.98848909    -0.55290
C592        C  0.12525231  0.48451867  0.88570607     0.84760
O593        O  0.10448836  0.05497410  0.89879411    -0.57190
O594        O  0.14690489  0.04673638  0.02784351    -0.60480
In595      In  0.23053660  0.17079009  0.87490758     1.36870
C596        C  0.18387022  0.17179123  0.81753493     0.77210
O597        O  0.25358441  0.14988681  0.80786160    -0.61230
O598        O  0.24738343  0.12487362  0.87820474    -0.52150
C599        C  0.25953151  0.21571785  0.92048984     0.69880
O600        O  0.25494914  0.21594202  0.87192904    -0.47000
C601        C  0.18683565  0.17296979  0.93962466     0.74580
O602        O  0.20292703  0.19357845  0.81655641    -0.58860
O603        O  0.20143405  0.14950583  0.93675629    -0.48950
O604        O  0.19200041  0.14826305  0.83863648    -0.55290
C605        C  0.25329022  0.12451905  0.83012446     0.84760
O606        O  0.25678643  0.18999617  0.94141056    -0.57190
O607        O  0.19819106  0.19551957  0.91689369    -0.60480
In608      In  0.01877760  0.17124938  0.71883406     1.36870
C609        C  0.06545380  0.16803655  0.99497523     0.77210
O610        O  0.49601982  0.18776604  0.98187205    -0.61230
O611        O  0.99419925  0.21355573  0.71854470    -0.52150
C612        C  0.49341665  0.12346640  0.76267128     0.69880
O613        O  0.99888965  0.12423280  0.71444302    -0.47000
C614        C  0.06173165  0.18014285  0.78429801     0.74580
O615        O  0.04821859  0.14514677  0.00091357    -0.58860
O616        O  0.04711593  0.20210150  0.77050120    -0.48950
O617        O  0.05579188  0.19246061  0.01005513    -0.55290
C618        C  0.49159640  0.21287740  0.66956725     0.84760
O619        O  0.49441530  0.14890082  0.78513303    -0.57190
O620        O  0.05091240  0.15472967  0.77191863    -0.60480
In621      In  0.37504462  0.06042299  0.95603472     1.36870
C622        C  0.37270612  0.09776823  0.87865672     0.77170
O623        O  0.35496745  0.10142103  0.98380674    -0.61230
O624        O  0.39923796  0.09627285  0.00391929    -0.52150
C625        C  0.32987717  0.03563268  0.00658385     0.69880
O626        O  0.33126181  0.03479489  0.95750302    -0.47000
C627        C  0.42130000  0.03409078  0.92258538     0.74580
O628        O  0.35085546  0.08011037  0.88904206    -0.58860
O629        O  0.41944646  0.04291879  0.96924209    -0.48950
O630        O  0.39599774  0.09169689  0.90085003    -0.55290
C631        C  0.37839813  0.11375460  0.66723534     0.84760
O632        O  0.35397046  0.04223682  0.02896046    -0.57190
O633        O  0.39715709  0.03115839  0.89871904    -0.60480
In634      In  0.37827178  0.27513421  0.78310645     1.36870
C635        C  0.38130259  0.23898759  0.70318365     0.77210
O636        O  0.40014641  0.23463911  0.80585338    -0.61230
O637        O  0.35707768  0.23925872  0.83434971    -0.52150
C638        C  0.42201474  0.30024801  0.83696445     0.69880
O639        O  0.42153454  0.30175159  0.78788263    -0.47000
C640        C  0.33059303  0.30040351  0.75257236     0.74580
O641        O  0.40255764  0.25744863  0.71360585    -0.58860
O642        O  0.33255636  0.28874833  0.79703951    -0.48950
O643        O  0.35828920  0.24289984  0.72823230    -0.55290
C644        C  0.37840181  0.22248301  0.82861929     0.84760
O645        O  0.39763778  0.29285653  0.85775621    -0.57190
O646        O  0.35483349  0.30581889  0.72965317    -0.60480
In647      In  0.26978378  0.41902366  0.87851221     1.36870
C648        C  0.31568543  0.42487709  0.93861527     0.77210
O649        O  0.24691921  0.39960501  0.94842313    -0.61230
O650        O  0.24472165  0.37435072  0.87760308    -0.52150
C651        C  0.24498308  0.46377085  0.83369106     0.69880
O652        O  0.25060175  0.46406071  0.88183132    -0.47000
C653        C  0.31359960  0.41198892  0.81617478     0.74580
O654        O  0.30155836  0.44767224  0.92758930    -0.58860
O655        O  0.29598343  0.38989851  0.82605384    -0.48950
O656        O  0.30350438  0.40010141  0.92595744    -0.55290
C657        C  0.24244226  0.37419585  0.92664880     0.84760
O658        O  0.24555815  0.43823472  0.81189559    -0.57190
O659        O  0.30505998  0.43721912  0.82942612    -0.60480
In660      In  0.48223099  0.41719741  0.71065501     1.36870
C661        C  0.43765007  0.41734236  0.98076286     0.77210
O662        O  0.00764122  0.39793908  0.97826835    -0.61230
O663        O  0.50335744  0.37294940  0.71547049    -0.52150
C664        C  0.00811369  0.46377096  0.75829528     0.69880
O665        O  0.50380490  0.46370544  0.70965771    -0.47000
C666        C  0.43610132  0.41638925  0.77051116     0.74580
O667        O  0.45602825  0.43968649  0.98269094    -0.58860
O668        O  0.45080869  0.39306848  0.76645847    -0.48950
O669        O  0.44565543  0.39399648  0.00268033    -0.55290
C670        C  0.00893576  0.37272693  0.66722352     0.84760
O671        O  0.00586966  0.43805643  0.77937732    -0.57190
O672        O  0.44844552  0.43984004  0.75250123    -0.60480
In673      In  0.50089930  0.04326266  0.84317341     1.36870
C674        C  0.50962513  0.49201058  0.78909070     0.77210
O675        O  0.04976415  0.05706020  0.84680519    -0.61230
O676        O  0.02802707  0.04571847  0.91670412    -0.52150
C677        C  0.99199485  0.09488258  0.79177234     0.69880
O678        O  0.99324793  0.06972361  0.76976557    -0.47000
C679        C  0.44975648  0.03348977  0.89516670     0.74580
O680        O  0.50908598  0.01752336  0.76849975    -0.58860
O681        O  0.47365741  0.04063042  0.91701266    -0.48950
O682        O  0.50727479  0.49264804  0.83783962    -0.55290
C683        C  0.05189825  0.05337924  0.89506346     0.84760
O684        O  0.99373828  0.09365857  0.84049046    -0.57190
O685        O  0.45199989  0.02994972  0.84679028    -0.60480
In686      In  0.50019288  0.29198980  0.91812340     1.36870
C687        C  0.99007419  0.24062038  0.97197575     0.77210
O688        O  0.02578930  0.27946266  0.84547153    -0.61230
O689        O  0.04953245  0.28706392  0.91457418    -0.52150
C690        C  0.44964516  0.30102235  0.86692347     0.69880
O691        O  0.45056159  0.29354931  0.91392997    -0.47000
C692        C  0.51035916  0.34426507  0.97089490     0.74580
O693        O  0.49317630  0.24104791  0.92333263    -0.58860
O694        O  0.50878166  0.34298314  0.92210389    -0.48950
O695        O  0.99022627  0.26633793  0.99249464    -0.55290
C696        C  0.05055295  0.28113184  0.86676467     0.84760
O697        O  0.47452619  0.30512442  0.84642559    -0.57190
O698        O  0.50865162  0.31889388  0.99229839    -0.60480
In699      In  0.25002840  0.04341001  0.75021893     1.36870
C700        C  0.24282401  0.49184709  0.80407251     0.77210
O701        O  0.20061537  0.04592475  0.74754877    -0.61230
O702        O  0.22388812  0.05421154  0.67792111    -0.52150
C703        C  0.25580802  0.09600737  0.80155455     0.69880
O704        O  0.25244153  0.07093006  0.82367507    -0.47000
C705        C  0.30163384  0.03491928  0.70162851     0.74580
O706        O  0.24680444  0.01729270  0.82502428    -0.58860
O707        O  0.27719577  0.03055513  0.67975079    -0.48950
O708        O  0.24081137  0.49263087  0.75530543    -0.55290
C709        C  0.19926882  0.05183980  0.69992317     0.84760
O710        O  0.25806052  0.09436431  0.75284987    -0.57190
O711        O  0.29972894  0.04261843  0.74854795    -0.60480
In712      In  0.25083371  0.29423921  0.67416998     1.36870
C713        C  0.24137796  0.34586393  0.95656472     0.77210
O714        O  0.27849932  0.29199448  0.74670687    -0.61230
O715        O  0.29936403  0.30921855  0.67927886    -0.52150
C716        C  0.19951175  0.28589211  0.72638649     0.69880
O717        O  0.20211347  0.28004559  0.67876658    -0.47000
C718        C  0.26067562  0.24370945  0.95202782     0.74580
O719        O  0.24696865  0.34504488  0.00438670    -0.58860
O720        O  0.25624011  0.24370318  0.00032942    -0.48950
O721        O  0.23923023  0.32033201  0.93535245    -0.55290
C722        C  0.30202616  0.30192458  0.72616316     0.84760
O723        O  0.22316738  0.29472503  0.74759001    -0.57190
O724        O  0.26153190  0.26957749  0.93241951    -0.60480
C725        C  0.38635478  0.40012605  0.99193548    -0.20680
C726        C  0.40675681  0.41930205  0.96561344    -0.07240
C727        C  0.39667034  0.44164078  0.93265535     0.13630
C728        C  0.36640961  0.44520322  0.92876131    -0.20730
C729        C  0.34619574  0.42603885  0.95557059    -0.07250
C730        C  0.35634215  0.40294635  0.98691471     0.13620
C731        C  0.33565040  0.38079789  0.68129494    -0.24080
H732        H  0.39385363  0.38287597  0.68410708     0.14900
H733        H  0.35846443  0.46164567  0.90207741     0.14930
C734        C  0.41758544  0.46029194  0.89946964    -0.24030
H735        H  0.34735140  0.36665246  0.70888498     0.05140
H736        H  0.32445669  0.36532639  0.65304091     0.08370
H737        H  0.31906200  0.39298741  0.70332808     0.08370
H738        H  0.43101910  0.44535967  0.87573702     0.08350
H739        H  0.43223426  0.47467768  0.92430226     0.08350
H740        H  0.40587610  0.47490489  0.87269952     0.05130
C741        C  0.35696610  0.43577209  0.77682585    -0.20680
C742        C  0.34392453  0.40978731  0.79887871    -0.07240
C743        C  0.36159034  0.38639701  0.81479577     0.13630
C744        C  0.39189953  0.38936343  0.80643834    -0.20730
C745        C  0.40499120  0.41580734  0.78539352    -0.07250
C746        C  0.38710716  0.43966337  0.77111886     0.13620
C747        C  0.39884377  0.46944596  0.74920574    -0.24080
H748        H  0.34333237  0.45386566  0.76559955     0.14900
H749        H  0.40546797  0.37112166  0.81702922     0.14930
C750        C  0.34899885  0.35906679  0.84274022    -0.24030
H751        H  0.38129472  0.48534688  0.74283386     0.05140
H752        H  0.40934214  0.46605230  0.71098189     0.08370
H753        H  0.41469731  0.48054145  0.77662423     0.08370
H754        H  0.33162992  0.34771475  0.81886152     0.08350
H755        H  0.33962915  0.36578177  0.88044970     0.08350
H756        H  0.36586564  0.34268917  0.85072000     0.05130
C757        C  0.40886914  0.19439755  0.68780911    -0.20680
C758        C  0.38416078  0.21035252  0.67594484    -0.07240
C759        C  0.35886186  0.19460774  0.65705334     0.13630
C760        C  0.35754343  0.16324310  0.65728829    -0.20730
C761        C  0.38133568  0.14688036  0.67337943    -0.07250
C762        C  0.40772351  0.16278282  0.68714094     0.13620
C763        C  0.43432552  0.14686947  0.70308890    -0.24080
H764        H  0.42831872  0.20661243  0.70213532     0.14900
H765        H  0.33741526  0.15153861  0.64514742     0.14930
C766        C  0.33291418  0.21074827  0.63738775    -0.24030
H767        H  0.45197670  0.16312163  0.71586954     0.05140
H768        H  0.44269963  0.13388145  0.66986267     0.08370
H769        H  0.42892952  0.13163753  0.73611087     0.08370
H770        H  0.34026208  0.22738715  0.94086285     0.08350
H771        H  0.32168340  0.22236033  0.66922749     0.08350
H772        H  0.31648273  0.19481027  0.61919743     0.05130
C773        C  0.39833584  0.14139534  0.83988359    -0.20680
C774        C  0.37133280  0.12716229  0.85324178    -0.07240
C775        C  0.34661956  0.14464851  0.85852722     0.13630
C776        C  0.34961740  0.17578292  0.85061360    -0.20730
C777        C  0.37702749  0.19013412  0.84070003    -0.07250
C778        C  0.40189708  0.17262334  0.83609598     0.13620
C779        C  0.43263908  0.18634539  0.83058448    -0.24080
H780        H  0.41750310  0.12812829  0.83700319     0.14900
H781        H  0.33047094  0.18907246  0.85324743     0.14930
C782        C  0.31735637  0.13110694  0.87483657    -0.24030
H783        H  0.44924363  0.16918281  0.83392142     0.05140
H784        H  0.43709042  0.20316669  0.86190134     0.08370
H785        H  0.43580089  0.19707305  0.79220301     0.08370
H786        H  0.31844912  0.12070988  0.91362652     0.08350
H787        H  0.31011079  0.11368476  0.84615466     0.08350
H788        H  0.30098282  0.14853705  0.87753258     0.05130
C789        C  0.11185155  0.20126607  0.77309659    -0.20680
C790        C  0.09204966  0.18269634  0.80198922    -0.07240
C791        C  0.10268429  0.16006293  0.83383132     0.13630
C792        C  0.13272005  0.15676350  0.83645755    -0.20730
C793        C  0.15257896  0.17482040  0.80694546    -0.07250
C794        C  0.14203728  0.19695643  0.77431890     0.13620
C795        C  0.16242109  0.21427661  0.73842801    -0.24080
H796        H  0.10353474  0.21738331  0.74619349     0.14900
H797        H  0.14066532  0.13970225  0.86185564     0.14930
C798        C  0.08242275  0.13842007  0.86360549    -0.24030
H799        H  0.15033547  0.22817194  0.71114949     0.05140
H800        H  0.17526781  0.19851497  0.71539444     0.08370
H801        H  0.17783023  0.22891200  0.76130266     0.08370
H802        H  0.07051913  0.12257574  0.83684276     0.08350
H803        H  0.06639792  0.15106788  0.88615642     0.08350
H804        H  0.09458838  0.12445415  0.89080957     0.05130
C805        C  0.10860549  0.19381194  0.95750857    -0.20680
C806        C  0.09600328  0.16724204  0.97826815    -0.07240
C807        C  0.11390693  0.14348460  0.99122613     0.13630
C808        C  0.14394641  0.14650921  0.98056643    -0.20730
C809        C  0.15651034  0.17299605  0.95877475    -0.07250
C810        C  0.13849835  0.19733243  0.94799144     0.13620
C811        C  0.14987344  0.22719621  0.92597930    -0.24080
H812        H  0.09480745  0.21225082  0.94899190     0.14900
H813        H  0.15761252  0.12794279  0.65543830     0.14930
C814        C  0.10176374  0.11536747  0.68416636    -0.24030
H815        H  0.13256094  0.24372487  0.92385699     0.05140
H816        H  0.15806015  0.22420073  0.88585272     0.08370
H817        H  0.16749181  0.23725723  0.95108353     0.08370
H818        H  0.08490662  0.10391293  0.65919895     0.08350
H819        H  0.09193762  0.12119940  0.72205773     0.08350
H820        H  0.11900053  0.09930477  0.69159519     0.05130
C821        C  0.14790741  0.42671355  0.67613808    -0.20680
C822        C  0.12257443  0.44234636  0.68613848    -0.07240
C823        C  0.09610774  0.42571014  0.69692517     0.13630
C824        C  0.09603601  0.39422392  0.69972519    -0.20730
C825        C  0.12175535  0.37906065  0.69221622    -0.07250
C826        C  0.14769696  0.39540939  0.67782524     0.13620
C827        C  0.17531355  0.38002440  0.66406939    -0.24080
H828        H  0.16825277  0.43899433  0.66660793     0.14900
H829        H  0.07624010  0.38155739  0.71143974     0.14930
C830        C  0.06802971  0.44068911  0.70662325    -0.24030
H831        H  0.19228643  0.39632278  0.64860576     0.05140
H832        H  0.17053512  0.36274743  0.63363782     0.08370
H833        H  0.18478871  0.36936700  0.69846686     0.08370
H834        H  0.06133466  0.45259518  0.67120089     0.08350
H835        H  0.07078863  0.45673198  0.73956156     0.08350
H836        H  0.05021657  0.42393376  0.71680506     0.05130
C837        C  0.14754689  0.40525158  0.86572650    -0.20680
C838        C  0.12014100  0.39066031  0.85675993    -0.07240
C839        C  0.09521650  0.40799445  0.85122529     0.13630
C840        C  0.09868476  0.43928464  0.85391092    -0.20730
C841        C  0.12592470  0.45389478  0.86438787    -0.07250
C842        C  0.15073587  0.43660322  0.87000557     0.13620
C843        C  0.18050325  0.45073788  0.88175820    -0.24080
H844        H  0.16674330  0.39208564  0.86879174     0.14900
H845        H  0.07951004  0.45248740  0.85072376     0.14930
C846        C  0.06462587  0.39408579  0.84424484    -0.24030
H847        H  0.19722177  0.43360094  0.88384348     0.05140
H848        H  0.18055230  0.46253863  0.91962329     0.08370
H849        H  0.18675293  0.46700913  0.85072024     0.08370
H850        H  0.05978291  0.37714719  0.87500865     0.08350
H851        H  0.06219152  0.38349520  0.80540465     0.08350
H852        H  0.04781612  0.41114222  0.84705107     0.05130
In853      In  0.12295110  0.80892832  0.12291102     1.36870
C854        C  0.12336271  0.84982111  0.05060329     0.77210
O855        O  0.09866445  0.84692082  0.15016509    -0.61230
O856        O  0.14096979  0.84209760  0.18207817    -0.52150
C857        C  0.07845050  0.78140075  0.17054246     0.69880
O858        O  0.07926509  0.78315156  0.12144997    -0.47000
C859        C  0.17089560  0.78644789  0.08677354     0.74580
O860        O  0.10218202  0.83026504  0.05371544    -0.58860
O861        O  0.16874140  0.79439365  0.13384825    -0.48950
O862        O  0.14466408  0.84555639  0.07966820    -0.55290
C863        C  0.11936508  0.85853838  0.17642908     0.84760
O864        O  0.10295840  0.78593250  0.19269080    -0.57190
O865        O  0.14677195  0.78301678  0.06289814    -0.60480
In866      In  0.12559303  0.52592205  0.29078472     1.36870
C867        C  0.12428512  0.97501778  0.00868404     0.77210
O868        O  0.10268081  0.99183442  0.24270124    -0.61230
O869        O  0.14738249  0.00263496  0.22436840    -0.52150
C870        C  0.08018456  0.55280320  0.25587512     0.69880
O871        O  0.08155781  0.54427238  0.30261712    -0.47000
C872        C  0.17121177  0.55129946  0.33814831     0.74580
O873        O  0.10298432  0.99205487  0.01119083    -0.58860
O874        O  0.16999696  0.55003360  0.28905065    -0.48950
O875        O  0.14702452  0.98693947  0.32182249    -0.55290
C876        C  0.12525237  0.98451870  0.21903946     0.84760
O877        O  0.10448829  0.55497412  0.23212757    -0.57190
O878        O  0.14690486  0.54673636  0.36117692    -0.60480
In879      In  0.23053650  0.67079003  0.20824081     1.36870
C880        C  0.18387014  0.67179116  0.15086814     0.77210
O881        O  0.25358433  0.64988677  0.14119484    -0.61230
O882        O  0.24738335  0.62487357  0.21153797    -0.52150
C883        C  0.25953141  0.71571779  0.25382307     0.69880
O884        O  0.25494904  0.71594196  0.20526227    -0.47000
C885        C  0.18683554  0.67296973  0.27295786     0.74580
O886        O  0.20292693  0.69357839  0.14988964    -0.58860
O887        O  0.20143394  0.64950577  0.27008950    -0.48950
O888        O  0.19200033  0.64826298  0.17196968    -0.55290
C889        C  0.25329014  0.62451900  0.16345769     0.84760
O890        O  0.25678633  0.68999611  0.27474379    -0.57190
O891        O  0.19819095  0.69551951  0.25022691    -0.60480
In892      In  0.01877749  0.67124930  0.05216739     1.36870
C893        C  0.06545369  0.66803649  0.32830843     0.77210
O894        O  0.49601984  0.68776598  0.31520563    -0.61230
O895        O  0.99419916  0.71355567  0.05187802    -0.52150
C896        C  0.49341662  0.62346644  0.09600453     0.69880
O897        O  0.99888953  0.62423272  0.04777639    -0.47000
C898        C  0.06173155  0.68014274  0.11763132     0.74580
O899        O  0.04821846  0.64514673  0.33424674    -0.58860
O900        O  0.04711582  0.70210140  0.10383459    -0.48950
O901        O  0.05579179  0.69246056  0.34338839    -0.55290
C902        C  0.49159632  0.71287742  0.00290040     0.84760
O903        O  0.49441526  0.64890086  0.11846627    -0.57190
O904        O  0.05091232  0.65472956  0.10525187    -0.60480
In905      In  0.37504459  0.56042294  0.28936795     1.36870
C906        C  0.37270605  0.59776814  0.21198991     0.77170
O907        O  0.35496743  0.60142100  0.31713995    -0.61230
O908        O  0.39923794  0.59627282  0.33725248    -0.52150
C909        C  0.32987715  0.53563264  0.33991712     0.69880
O910        O  0.33126178  0.53479484  0.29083629    -0.47000
C911        C  0.42129998  0.53409075  0.25591862     0.74580
O912        O  0.35085539  0.58011028  0.22237529    -0.58860
O913        O  0.41944643  0.54291875  0.30257533    -0.48950
O914        O  0.39599768  0.59169682  0.23418320    -0.55290
C915        C  0.37839809  0.61375462  0.00056850     0.84760
O916        O  0.35397044  0.54223679  0.36229371    -0.57190
O917        O  0.39715707  0.53115835  0.23205228    -0.60480
In918      In  0.37827174  0.77513416  0.11643985     1.36870
C919        C  0.38130255  0.73898759  0.03651697     0.77210
O920        O  0.40014636  0.73463904  0.13918671    -0.61230
O921        O  0.35707762  0.73925864  0.16768302    -0.52150
C922        C  0.42201470  0.80024792  0.17029791     0.69880
O923        O  0.42153450  0.80175153  0.12121608    -0.47000
C924        C  0.33059300  0.80040348  0.08590578     0.74580
O925        O  0.40255761  0.75744862  0.04693921    -0.58860
O926        O  0.33255632  0.78874828  0.13037292    -0.48950
O927        O  0.35828916  0.74289983  0.06156563    -0.55290
C928        C  0.37840174  0.72248293  0.16195257     0.84760
O929        O  0.39763774  0.79285642  0.19108964    -0.57190
O930        O  0.35483346  0.80581886  0.06298660    -0.60480
In931      In  0.26978379  0.91902362  0.21184549     1.36870
C932        C  0.31568542  0.92487704  0.27194860     0.77210
O933        O  0.24691919  0.89960497  0.28175637    -0.61230
O934        O  0.24472165  0.87435069  0.21093632    -0.52150
C935        C  0.24498312  0.96377082  0.16702432     0.69880
O936        O  0.25060178  0.96406068  0.21516458    -0.47000
C937        C  0.31359963  0.91198888  0.14950812     0.74580
O938        O  0.30155836  0.94767219  0.26092261    -0.58860
O939        O  0.29598347  0.88989846  0.15938716    -0.48950
O940        O  0.30350437  0.90010136  0.25929077    -0.55290
C941        C  0.24244224  0.87419582  0.25998203     0.84760
O942        O  0.24555819  0.93823469  0.14522884    -0.57190
O943        O  0.30506000  0.93721908  0.16275944    -0.60480
In944      In  0.48223101  0.91719737  0.04398833     1.36870
C945        C  0.43765005  0.91734230  0.31409628     0.77210
O946        O  0.00764119  0.89793910  0.31160169    -0.61230
O947        O  0.50335747  0.87294937  0.04880374    -0.52150
C948        C  0.00811371  0.96377089  0.09162866     0.69880
O949        O  0.50380491  0.96370541  0.04299106    -0.47000
C950        C  0.43610136  0.91638920  0.10384451     0.74580
O951        O  0.45602823  0.93968644  0.31602437    -0.58860
O952        O  0.45080872  0.89306843  0.09979179    -0.48950
O953        O  0.44565540  0.89399642  0.33601376    -0.55290
C954        C  0.00893576  0.87272686  0.00055688     0.84760
O955        O  0.00586968  0.93805636  0.11271069    -0.57190
O956        O  0.44844556  0.93983999  0.08583461    -0.60480
In957      In  0.50089929  0.54326270  0.17650667     1.36870
C958        C  0.50962514  0.99201053  0.12242407     0.77210
O959        O  0.04976407  0.55706024  0.18013868    -0.61230
O960        O  0.02802702  0.54571837  0.25003756    -0.52150
C961        C  0.99199476  0.59488253  0.12510574     0.69880
O962        O  0.99324782  0.56972355  0.10309900    -0.47000
C963        C  0.44975646  0.53348976  0.22849993     0.74580
O964        O  0.50908597  0.51752339  0.10183303    -0.58860
O965        O  0.47365739  0.54063039  0.25034591    -0.48950
O966        O  0.50727480  0.99264797  0.17117300    -0.55290
C967        C  0.05189818  0.55337921  0.22839693     0.84760
O968        O  0.99373822  0.59365854  0.17382386    -0.57190
O969        O  0.45199987  0.52994976  0.18012351    -0.60480
In970      In  0.50019284  0.79198973  0.25145689     1.36870
C971        C  0.99007414  0.74062038  0.30530915     0.77210
O972        O  0.02578927  0.77946269  0.17880494    -0.61230
O973        O  0.04953242  0.78706392  0.24790760    -0.52150
C974        C  0.44964512  0.80102226  0.20025694     0.69880
O975        O  0.45056155  0.79354922  0.24726344    -0.47000
C976        C  0.51035912  0.84426500  0.30422839     0.74580
O977        O  0.49317633  0.74104783  0.25666615    -0.58860
O978        O  0.50878162  0.84298307  0.25543738    -0.48950
O979        O  0.99022627  0.76633793  0.32582806    -0.55290
C980        C  0.05055292  0.78113185  0.20009808     0.84760
O981        O  0.47452615  0.80512434  0.17975907    -0.57190
O982        O  0.50865158  0.81889381  0.32563188    -0.60480
In983      In  0.25002837  0.54340998  0.08355213     1.36870
C984        C  0.24282407  0.99184706  0.13740576     0.77210
O985        O  0.20061535  0.54592472  0.08088196    -0.61230
O986        O  0.22388810  0.55421153  0.01125431    -0.52150
C987        C  0.25580796  0.59600733  0.13488778     0.69880
O988        O  0.25244147  0.57093002  0.15700828    -0.47000
C989        C  0.30163382  0.53491928  0.03496169     0.74580
O990        O  0.24680445  0.51729267  0.15835747    -0.58860
O991        O  0.27719575  0.53055509  0.01308398    -0.48950
O992        O  0.24081145  0.99263085  0.08863868    -0.55290
C993        C  0.19926880  0.55183980  0.03325637     0.84760
O994        O  0.25806049  0.59436428  0.08618309    -0.57190
O995        O  0.29972892  0.54261844  0.08188112    -0.60480
In996      In  0.25083368  0.79423921  0.00750339     1.36870
C997        C  0.24137791  0.84586389  0.28989794     0.77210
O998        O  0.27849929  0.79199446  0.08004028    -0.61230
O999        O  0.29936401  0.80921853  0.01261227    -0.52150
C1000       C  0.19951173  0.78589211  0.05971990     0.69880
O1001       O  0.20211344  0.78004560  0.01209999    -0.47000
C1002       C  0.26067554  0.74370939  0.28536104     0.74580
O1003       O  0.24696858  0.84504483  0.33771993    -0.58860
O1004       O  0.25624003  0.74370313  0.33366264    -0.48950
O1005       O  0.23923019  0.82033197  0.26868566    -0.55290
C1006       C  0.30202613  0.80192456  0.05949657     0.84760
O1007       O  0.22316736  0.79472502  0.08092342    -0.57190
O1008       O  0.26153181  0.76957743  0.26575273    -0.60480
C1009       C  0.38635476  0.90012599  0.32526885    -0.20680
C1010       C  0.40675679  0.91930199  0.29894683    -0.07240
C1011       C  0.39667034  0.94164072  0.26598873     0.13630
C1012       C  0.36640960  0.94520316  0.26209467    -0.20730
C1013       C  0.34619573  0.92603879  0.28890394    -0.07250
C1014       C  0.35634213  0.90294629  0.32024806     0.13620
C1015       C  0.33565041  0.88079786  0.01462830    -0.24080
H1016       H  0.39385364  0.88287594  0.01744043     0.14900
H1017       H  0.35846444  0.96164561  0.23541077     0.14930
C1018       C  0.41758544  0.96029189  0.23280304    -0.24030
H1019       H  0.34735141  0.86665242  0.04221832     0.05140
H1020       H  0.32445670  0.86532636  0.98637426     0.08370
H1021       H  0.31906201  0.89298736  0.03666145     0.08370
H1022       H  0.43101911  0.94535962  0.20907043     0.08350
H1023       H  0.43223425  0.97467762  0.25763567     0.08350
H1024       H  0.40587611  0.97490485  0.20603292     0.05130
C1025       C  0.35696614  0.93577204  0.11015922    -0.20680
C1026       C  0.34392456  0.90978726  0.13221207    -0.07240
C1027       C  0.36159038  0.88639697  0.14812913     0.13630
C1028       C  0.39189957  0.88936339  0.13977171    -0.20730
C1029       C  0.40499124  0.91580729  0.11872689    -0.07250
C1030       C  0.38710720  0.93966332  0.10445224     0.13620
C1031       C  0.39884381  0.96944592  0.08253914    -0.24080
H1032       H  0.34333241  0.95386562  0.09893291     0.14900
H1033       H  0.40546801  0.87112161  0.15036258     0.14930
C1034       C  0.34899889  0.85906675  0.17607360    -0.24030
H1035       H  0.38129477  0.98534684  0.07616726     0.05140
H1036       H  0.40934219  0.96605227  0.04431528     0.08370
H1037       H  0.41469736  0.98054140  0.10995764     0.08370
H1038       H  0.33162995  0.84771471  0.15219491     0.08350
H1039       H  0.33962918  0.86578174  0.21378308     0.08350
H1040       H  0.36586567  0.84268913  0.18405339     0.05130
C1041       C  0.40886911  0.69439756  0.02114235    -0.20680
C1042       C  0.38416074  0.71035254  0.00927810    -0.07240
C1043       C  0.35886183  0.69460777  0.99038658     0.13630
C1044       C  0.35754339  0.66324312  0.99062149    -0.20730
C1045       C  0.38133564  0.64688038  0.00671261    -0.07250
C1046       C  0.40772347  0.66278283  0.02047414     0.13620
C1047       C  0.43432549  0.64686947  0.03642207    -0.24080
H1048       H  0.42831869  0.70661244  0.03546857     0.14900
H1049       H  0.33741522  0.65153864  0.97848060     0.14930
C1050       C  0.33291414  0.71074831  0.97072102    -0.24030
H1051       H  0.45197666  0.66312163  0.04920273     0.05140
H1052       H  0.44269959  0.63388146  0.00319583     0.08370
H1053       H  0.42892949  0.63163752  0.06944403     0.08370
H1054       H  0.34026211  0.72738714  0.27419603     0.08350
H1055       H  0.32168337  0.72236036  0.00256077     0.08350
H1056       H  0.31648269  0.69481032  0.95253068     0.05130
C1057       C  0.39833576  0.64139524  0.17321672    -0.20680
C1058       C  0.37133272  0.62716219  0.18657495    -0.07240
C1059       C  0.34661948  0.64464842  0.19186042     0.13630
C1060       C  0.34961732  0.67578282  0.18394681    -0.20730
C1061       C  0.37702741  0.69013403  0.17403325    -0.07250
C1062       C  0.40189700  0.67262324  0.16942916     0.13620
C1063       C  0.43263900  0.68634528  0.16391768    -0.24080
H1064       H  0.41750301  0.62812819  0.17033629     0.14900
H1065       H  0.33047086  0.68907237  0.18658066     0.14930
C1066       C  0.31735630  0.63110685  0.20816979    -0.24030
H1067       H  0.44924355  0.66918270  0.16725459     0.05140
H1068       H  0.43709034  0.70316657  0.19523457     0.08370
H1069       H  0.43580082  0.69707297  0.12553623     0.08370
H1070       H  0.31844906  0.62070979  0.24695974     0.08350
H1071       H  0.31011071  0.61368467  0.17948789     0.08350
H1072       H  0.30098274  0.64853696  0.21086582     0.05130
C1073       C  0.11185144  0.70126599  0.10642991    -0.20680
C1074       C  0.09204956  0.68269623  0.13532252    -0.07240
C1075       C  0.10268421  0.66006280  0.16716456     0.13630
C1076       C  0.13271997  0.65676339  0.16979076    -0.20730
C1077       C  0.15257886  0.67482031  0.14027870    -0.07250
C1078       C  0.14203717  0.69695637  0.10765220     0.13620
C1079       C  0.16242097  0.71427660  0.07176134    -0.24080
H1080       H  0.10353462  0.71738326  0.07952686     0.14900
H1081       H  0.14066525  0.63970212  0.19518880     0.14930
C1082       C  0.08242269  0.63841992  0.19693869    -0.24030
H1083       H  0.15033533  0.72817194  0.04448286     0.05140
H1084       H  0.17526769  0.69851498  0.04872771     0.08370
H1085       H  0.17783010  0.72891198  0.09463602     0.08370
H1086       H  0.07051907  0.62257559  0.17017593     0.08350
H1087       H  0.06639784  0.65106770  0.21948965     0.08350
H1088       H  0.09458832  0.62445399  0.22414275     0.05130
C1089       C  0.10860537  0.69381188  0.29084175    -0.20680
C1090       C  0.09600315  0.66724198  0.31160132    -0.07240
C1091       C  0.11390681  0.64348453  0.32455930     0.13630
C1092       C  0.14394628  0.64650914  0.31389960    -0.20730
C1093       C  0.15651022  0.67299599  0.29210794    -0.07250
C1094       C  0.13849823  0.69733237  0.28132463     0.13620
C1095       C  0.14987333  0.72719615  0.25931251    -0.24080
H1096       H  0.09480734  0.71225076  0.28232508     0.14900
H1097       H  0.15761242  0.62794276  0.98877156     0.14930
C1098       C  0.10176364  0.61536744  0.01749964    -0.24030
H1099       H  0.13256083  0.74372481  0.25719019     0.05140
H1100       H  0.15806004  0.72420068  0.21918593     0.08370
H1101       H  0.16749169  0.73725717  0.28441674     0.08370
H1102       H  0.08490652  0.60391290  0.99253224     0.08350
H1103       H  0.09193753  0.62119936  0.05539102     0.08350
H1104       H  0.11900043  0.59930473  0.02492845     0.05130
C1105       C  0.14790746  0.92671356  0.00947155    -0.20680
C1106       C  0.12257447  0.94234637  0.01947189    -0.07240
C1107       C  0.09610777  0.92571016  0.03025852     0.13630
C1108       C  0.09603604  0.89422394  0.03305855    -0.20730
C1109       C  0.12175538  0.87906066  0.02554965    -0.07250
C1110       C  0.14769700  0.89540940  0.01115871     0.13620
C1111       C  0.17531359  0.88002441  0.99740290    -0.24080
H1112       H  0.16825282  0.93899434  0.99994144     0.14900
H1113       H  0.07624012  0.88155742  0.04477307     0.14930
C1114       C  0.06802974  0.94068913  0.03995651    -0.24030
H1115       H  0.19228648  0.89632279  0.98193929     0.05140
H1116       H  0.17053517  0.86274743  0.96697133     0.08370
H1117       H  0.18478874  0.86936701  0.03180039     0.08370
H1118       H  0.06133472  0.95259521  0.00453413     0.08350
H1119       H  0.07078863  0.95673200  0.07289483     0.08350
H1120       H  0.05021658  0.92393379  0.05013827     0.05130
C1121       C  0.14754693  0.90525160  0.19905990    -0.20680
C1122       C  0.12014103  0.89066034  0.19009333    -0.07240
C1123       C  0.09521654  0.90799449  0.18455866     0.13630
C1124       C  0.09868481  0.93928468  0.18724428    -0.20730
C1125       C  0.12592476  0.95389481  0.19772125    -0.07250
C1126       C  0.15073592  0.93660324  0.20333897     0.13620
C1127       C  0.18050330  0.95073788  0.21509161    -0.24080
H1128       H  0.16674333  0.89208565  0.20212516     0.14900
H1129       H  0.07951010  0.95248745  0.18405709     0.14930
C1130       C  0.06462590  0.89408584  0.17757819    -0.24030
H1131       H  0.19722181  0.93360094  0.21717690     0.05140
H1132       H  0.18055235  0.96253863  0.25295671     0.08370
H1133       H  0.18675300  0.96700914  0.18405367     0.08370
H1134       H  0.05978293  0.87714725  0.20834200     0.08350
H1135       H  0.06219156  0.88349525  0.13873800     0.08350
H1136       H  0.04781616  0.91114229  0.18038441     0.05130
In1137     In  0.12295104  0.80892830  0.45624408     1.36870
C1138       C  0.12336269  0.84982114  0.38393644     0.77210
O1139       O  0.09866441  0.84692080  0.48349821    -0.61230
O1140       O  0.14096974  0.84209754  0.51541129    -0.52150
C1141       C  0.07845043  0.78140074  0.50387550     0.69880
O1142       O  0.07926502  0.78315157  0.45478301    -0.47000
C1143       C  0.17089553  0.78644784  0.42010660     0.74580
O1144       O  0.10218199  0.83026508  0.38704854    -0.58860
O1145       O  0.16874133  0.79439359  0.46718131    -0.48950
O1146       O  0.14466405  0.84555638  0.41300134    -0.55290
C1147       C  0.11936504  0.85853834  0.50976223     0.84760
O1148       O  0.10295834  0.78593247  0.52602385    -0.57190
O1149       O  0.14677188  0.78301675  0.39623119    -0.60480
In1150     In  0.12559301  0.52592207  0.62411801     1.36870
C1151       C  0.12428511  0.97501785  0.34201737     0.77210
O1152       O  0.10268079  0.99183434  0.57603468    -0.61230
O1153       O  0.14738246  0.00263489  0.55770181    -0.52150
C1154       C  0.08018455  0.55280322  0.58920837     0.69880
O1155       O  0.08155778  0.54427241  0.63595037    -0.47000
C1156       C  0.17121172  0.55129948  0.67148164     0.74580
O1157       O  0.10298431  0.99205493  0.34452414    -0.58860
O1158       O  0.16999693  0.55003361  0.62238398    -0.48950
O1159       O  0.14702451  0.98693939  0.65515591    -0.55290
C1160       C  0.12525234  0.98451862  0.55237288     0.84760
O1161       O  0.10448828  0.55497413  0.56546083    -0.57190
O1162       O  0.14690481  0.54673638  0.69451022    -0.60480
In1163     In  0.23053657  0.67079010  0.54157403     1.36870
C1164       C  0.18387026  0.67179115  0.48420119     0.77210
O1165       O  0.25358446  0.64988682  0.47452815    -0.61230
O1166       O  0.24738339  0.62487363  0.54487129    -0.52150
C1167       C  0.25953143  0.71571785  0.58715641     0.69880
O1168       O  0.25494911  0.71594203  0.53859560    -0.47000
C1169       C  0.18683552  0.67296981  0.60629090     0.74580
O1170       O  0.20292703  0.69357841  0.48322273    -0.58860
O1171       O  0.20143395  0.64950587  0.60342266    -0.48950
O1172       O  0.19200046  0.64826299  0.50530278    -0.55290
C1173       C  0.25329023  0.62451905  0.49679103     0.84760
O1174       O  0.25678632  0.68999617  0.60807711    -0.57190
O1175       O  0.19819094  0.69551959  0.58355991    -0.60480
In1176     In  0.01877751  0.67124930  0.38550054     1.36870
C1177       C  0.06545366  0.66803655  0.66164138     0.77210
O1178       O  0.49601981  0.68776609  0.64853859    -0.61230
O1179       O  0.99419922  0.71355569  0.38521129    -0.52150
C1180       C  0.49341656  0.62346633  0.42933810     0.69880
O1181       O  0.99888949  0.62423274  0.38110962    -0.47000
C1182       C  0.06173166  0.68014269  0.45096430     0.74580
O1183       O  0.04821846  0.64514678  0.66757983    -0.58860
O1184       O  0.04711593  0.70210136  0.43716763    -0.48950
O1185       O  0.05579175  0.69246063  0.67672126    -0.55290
C1186       C  0.49159636  0.71287734  0.33623407     0.84760
O1187       O  0.49441518  0.64890075  0.45179986    -0.57190
O1188       O  0.05091240  0.65472952  0.43858488    -0.60480
In1189     In  0.37504456  0.56042298  0.62270151     1.36870
C1190       C  0.37270607  0.59776822  0.54532350     0.77170
O1191       O  0.35496740  0.60142102  0.65047354    -0.61230
O1192       O  0.39923792  0.59627285  0.67058604    -0.52150
C1193       C  0.32987710  0.53563269  0.67325063     0.69880
O1194       O  0.33126174  0.53479490  0.62416980    -0.47000
C1195       C  0.42129993  0.53409075  0.58925220     0.74580
O1196       O  0.35085541  0.58011036  0.55570884    -0.58860
O1197       O  0.41944639  0.54291876  0.63590890    -0.48950
O1198       O  0.39599769  0.59169687  0.56751681    -0.55290
C1199       C  0.37839810  0.61375455  0.33390189     0.84760
O1200       O  0.35397038  0.54223683  0.69562724    -0.57190
O1201       O  0.39715702  0.53115836  0.56538585    -0.60480
In1202     In  0.37827169  0.77513418  0.44977302     1.36870
C1203       C  0.38130253  0.73898754  0.36985024     0.77210
O1204       O  0.40014634  0.73463909  0.47252000    -0.61230
O1205       O  0.35707760  0.73925870  0.50101632    -0.52150
C1206       C  0.42201465  0.80024801  0.50363100     0.69880
O1207       O  0.42153444  0.80175158  0.45454917    -0.47000
C1208       C  0.33059294  0.80040345  0.41923889     0.74580
O1209       O  0.40255758  0.75744859  0.38027245    -0.58860
O1210       O  0.33255627  0.78874828  0.46370605    -0.48950
O1211       O  0.35828914  0.74289978  0.39489889    -0.55290
C1212       C  0.37840173  0.72248299  0.49528592     0.84760
O1213       O  0.39763770  0.79285652  0.52442276    -0.57190
O1214       O  0.35483340  0.80581882  0.39631970    -0.60480
In1215     In  0.26978374  0.91902364  0.54517882     1.36870
C1216       C  0.31568539  0.92487708  0.60528189     0.77210
O1217       O  0.24691917  0.89960501  0.61508975    -0.61230
O1218       O  0.24472159  0.87435071  0.54426970    -0.52150
C1219       C  0.24498307  0.96377085  0.50035766     0.69880
O1220       O  0.25060173  0.96406071  0.54849792    -0.47000
C1221       C  0.31359955  0.91198888  0.48284139     0.74580
O1222       O  0.30155831  0.94767223  0.59425592    -0.58860
O1223       O  0.29598338  0.88989847  0.49272046    -0.48950
O1224       O  0.30350435  0.90010140  0.59262405    -0.55290
C1225       C  0.24244221  0.87419585  0.59331542     0.84760
O1226       O  0.24555812  0.93823472  0.47856219    -0.57190
O1227       O  0.30505994  0.93721909  0.49609272    -0.60480
In1228     In  0.48223097  0.91719734  0.37732180     1.36870
C1229       C  0.43765002  0.91734236  0.64742953     0.77210
O1230       O  0.00764116  0.89793912  0.64493489    -0.61230
O1231       O  0.50335742  0.87294933  0.38213728    -0.52150
C1232       C  0.00811369  0.96377092  0.42496201     0.69880
O1233       O  0.50380488  0.96370537  0.37632451    -0.47000
C1234       C  0.43610129  0.91638917  0.43717790     0.74580
O1235       O  0.45602821  0.93968649  0.64935760    -0.58860
O1236       O  0.45080865  0.89306840  0.43312520    -0.48950
O1237       O  0.44565538  0.89399648  0.66934700    -0.55290
C1238       C  0.00893574  0.87272691  0.33389022     0.84760
O1239       O  0.00586966  0.93805639  0.44604403    -0.57190
O1240       O  0.44844550  0.93983996  0.41916802    -0.60480
In1241     In  0.50089924  0.54326260  0.50984024     1.36870
C1242       C  0.50962513  0.99201051  0.45575749     0.77210
O1243       O  0.04976407  0.55706023  0.51347192    -0.61230
O1244       O  0.02802700  0.54571844  0.58337082    -0.52150
C1245       C  0.99199476  0.59488257  0.45843901     0.69880
O1246       O  0.99324776  0.56972358  0.43643227    -0.47000
C1247       C  0.44975641  0.53348973  0.56183351     0.74580
O1248       O  0.50908594  0.51752331  0.43516658    -0.58860
O1249       O  0.47365735  0.54063036  0.58367948    -0.48950
O1250       O  0.50727479  0.99264797  0.50450642    -0.55290
C1251       C  0.05189816  0.55337924  0.56173018     0.84760
O1252       O  0.99373827  0.59365858  0.50715712    -0.57190
O1253       O  0.45199982  0.52994967  0.51345710    -0.60480
In1254     In  0.50019280  0.79198984  0.58478992     1.36870
C1255       C  0.99007408  0.74062042  0.63864219     0.77210
O1256       O  0.02578921  0.77946273  0.51213799    -0.61230
O1257       O  0.04953236  0.78706392  0.58124066    -0.52150
C1258       C  0.44964507  0.80102237  0.53359001     0.69880
O1259       O  0.45056152  0.79354933  0.58059651    -0.47000
C1260       C  0.51035910  0.84426510  0.63756145     0.74580
O1261       O  0.49317627  0.74104795  0.58999915    -0.58860
O1262       O  0.50878157  0.84298318  0.58877044    -0.48950
O1263       O  0.99022618  0.76633796  0.65916111    -0.55290
C1264       C  0.05055286  0.78113187  0.53343113     0.84760
O1265       O  0.47452610  0.80512446  0.51309212    -0.57190
O1266       O  0.50865158  0.81889390  0.65896491    -0.60480
In1267     In  0.25002838  0.54341001  0.41688554     1.36870
C1268       C  0.24282404  0.99184710  0.47073910     0.77210
O1269       O  0.20061535  0.54592473  0.41421540    -0.61230
O1270       O  0.22388809  0.55421156  0.34458774    -0.52150
C1271       C  0.25580803  0.59600737  0.46822114     0.69880
O1272       O  0.25244150  0.57093006  0.49034167    -0.47000
C1273       C  0.30163381  0.53491925  0.36829510     0.74580
O1274       O  0.24680444  0.51729270  0.49169089    -0.58860
O1275       O  0.27719574  0.53055511  0.34641738    -0.48950
O1276       O  0.24081141  0.99263089  0.42197202    -0.55290
C1277       C  0.19926879  0.55183981  0.36658981     0.84760
O1278       O  0.25806055  0.59436430  0.41951646    -0.57190
O1279       O  0.29972892  0.54261840  0.41521455    -0.60480
In1280     In  0.25083362  0.79423914  0.34083649     1.36870
C1281       C  0.24137789  0.84586392  0.62323134     0.77210
O1282       O  0.27849923  0.79199443  0.41337339    -0.61230
O1283       O  0.29936395  0.80921846  0.34594536    -0.52150
C1284       C  0.19951166  0.78589205  0.39305297     0.69880
O1285       O  0.20211337  0.78004557  0.34543305    -0.47000
C1286       C  0.26067555  0.74370944  0.61869441     0.74580
O1287       O  0.24696858  0.84504487  0.67105333    -0.58860
O1288       O  0.25624004  0.74370317  0.66699601    -0.48950
O1289       O  0.23923015  0.82033200  0.60201908    -0.55290
C1290       C  0.30202607  0.80192452  0.39282967     0.84760
O1291       O  0.22316729  0.79472493  0.41425652    -0.57190
O1292       O  0.26153183  0.76957749  0.59908612    -0.60480
C1293       C  0.38635473  0.90012606  0.65860215    -0.20680
C1294       C  0.40675676  0.91930205  0.63228010    -0.07240
C1295       C  0.39667030  0.94164076  0.59932198     0.13630
C1296       C  0.36640956  0.94520321  0.59542792    -0.20730
C1297       C  0.34619570  0.92603885  0.62223722    -0.07250
C1298       C  0.35634210  0.90294635  0.65358137     0.13620
C1299       C  0.33565039  0.88079779  0.34796157    -0.24080
H1300       H  0.39385362  0.88287587  0.35077373     0.14900
H1301       H  0.35846440  0.96164564  0.56874401     0.14930
C1302       C  0.41758540  0.96029191  0.56613626    -0.24030
H1303       H  0.34735139  0.86665235  0.37555160     0.05140
H1304       H  0.32445670  0.86532629  0.31970751     0.08370
H1305       H  0.31906198  0.89298728  0.36999471     0.08370
H1306       H  0.43101906  0.94535964  0.54240365     0.08350
H1307       H  0.43223423  0.97467765  0.59096887     0.08350
H1308       H  0.40587607  0.97490487  0.53936614     0.05130
C1309       C  0.35696607  0.93577203  0.44349248    -0.20680
C1310       C  0.34392448  0.90978725  0.46554533    -0.07240
C1311       C  0.36159028  0.88639695  0.48146239     0.13630
C1312       C  0.39189947  0.88936336  0.47310501    -0.20730
C1313       C  0.40499116  0.91580726  0.45206021    -0.07250
C1314       C  0.38710713  0.93966330  0.43778552     0.13620
C1315       C  0.39884375  0.96944589  0.41587242    -0.24080
H1316       H  0.34333235  0.95386560  0.43226615     0.14900
H1317       H  0.40546791  0.87112158  0.48369590     0.14930
C1318       C  0.34899877  0.85906672  0.50940682    -0.24030
H1319       H  0.38129471  0.98534681  0.40950050     0.05140
H1320       H  0.40934215  0.96605223  0.37764858     0.08370
H1321       H  0.41469728  0.98054138  0.44329093     0.08370
H1322       H  0.33162985  0.84771469  0.48552808     0.08350
H1323       H  0.33962905  0.86578170  0.54711629     0.08350
H1324       H  0.36586555  0.84268910  0.51738661     0.05130
C1325       C  0.40886910  0.69439750  0.35447576    -0.20680
C1326       C  0.38416074  0.71035248  0.34261144    -0.07240
C1327       C  0.35886184  0.69460770  0.32371987     0.13630
C1328       C  0.35754341  0.66324305  0.32395479    -0.20730
C1329       C  0.38133564  0.64688032  0.34004598    -0.07250
C1330       C  0.40772346  0.66278277  0.35380758     0.13620
C1331       C  0.43432546  0.64686941  0.36975562    -0.24080
H1332       H  0.42831867  0.70661238  0.36880203     0.14900
H1333       H  0.33741524  0.65153857  0.31181387     0.14930
C1334       C  0.33291416  0.71074823  0.30405426    -0.24030
H1335       H  0.45197662  0.66312158  0.38253633     0.05140
H1336       H  0.44269960  0.63388140  0.33652942     0.08370
H1337       H  0.42892942  0.63163747  0.40277757     0.08370
H1338       H  0.34026200  0.72738711  0.60752949     0.08350
H1339       H  0.32168337  0.72236029  0.33589399     0.08350
H1340       H  0.31648271  0.69481024  0.28586391     0.05130
C1341       C  0.39833580  0.64139534  0.50655039    -0.20680
C1342       C  0.37133276  0.62716228  0.51990857    -0.07240
C1343       C  0.34661951  0.64464849  0.52519399     0.13630
C1344       C  0.34961734  0.67578290  0.51728031    -0.20730
C1345       C  0.37702742  0.69013411  0.50736673    -0.07250
C1346       C  0.40189702  0.67262334  0.50276273     0.13620
C1347       C  0.43263902  0.68634539  0.49725123    -0.24080
H1348       H  0.41750306  0.62812830  0.50367001     0.14900
H1349       H  0.33047087  0.68907244  0.51991412     0.14930
C1350       C  0.31735633  0.63110692  0.54150336    -0.24030
H1351       H  0.44924358  0.66918283  0.50058823     0.05140
H1352       H  0.43709034  0.70316673  0.52856806     0.08370
H1353       H  0.43580084  0.69707303  0.45886974     0.08370
H1354       H  0.31844909  0.62070988  0.58029332     0.08350
H1355       H  0.31011075  0.61368473  0.51282147     0.08350
H1356       H  0.30098277  0.64853703  0.54419936     0.05130
C1357       C  0.11185156  0.70126592  0.43976283    -0.20680
C1358       C  0.09204968  0.68269616  0.46865543    -0.07240
C1359       C  0.10268433  0.66006272  0.50049747     0.13630
C1360       C  0.13272010  0.65676333  0.50312369    -0.20730
C1361       C  0.15257899  0.67482027  0.47361165    -0.07250
C1362       C  0.14203730  0.69695631  0.44098514     0.13620
C1363       C  0.16242110  0.71427655  0.40509430    -0.24080
H1364       H  0.10353473  0.71738318  0.41285977     0.14900
H1365       H  0.14066539  0.63970206  0.52852173     0.14930
C1366       C  0.08242282  0.63841983  0.53027159    -0.24030
H1367       H  0.15033546  0.72817190  0.37781582     0.05140
H1368       H  0.17526783  0.69851495  0.38206068     0.08370
H1369       H  0.17783021  0.72891194  0.42796899     0.08370
H1370       H  0.07051921  0.62257550  0.50350883     0.08350
H1371       H  0.06639796  0.65106760  0.55282255     0.08350
H1372       H  0.09458846  0.62445391  0.55747566     0.05130
C1373       C  0.10860533  0.69381191  0.62417458    -0.20680
C1374       C  0.09600312  0.66724203  0.64493423    -0.07240
C1375       C  0.11390678  0.64348460  0.65789228     0.13630
C1376       C  0.14394626  0.64650922  0.64723258    -0.20730
C1377       C  0.15651018  0.67299606  0.62544088    -0.07250
C1378       C  0.13849819  0.69733241  0.61465748     0.13620
C1379       C  0.14987327  0.72719618  0.59264530    -0.24080
H1380       H  0.09480728  0.71225077  0.61565786     0.14900
H1381       H  0.15761235  0.62794268  0.32210472     0.14930
C1382       C  0.10176356  0.61536737  0.35083270    -0.24030
H1383       H  0.13256076  0.74372483  0.59052290     0.05140
H1384       H  0.15806001  0.72420068  0.55251875     0.08370
H1385       H  0.16749162  0.73725724  0.61774954     0.08370
H1386       H  0.08490643  0.60391284  0.32586531     0.08350
H1387       H  0.09193745  0.62119932  0.38872406     0.08350
H1388       H  0.11900033  0.59930466  0.35826153     0.05130
C1389       C  0.14790746  0.92671362  0.34280487    -0.20680
C1390       C  0.12257446  0.94234643  0.35280520    -0.07240
C1391       C  0.09610776  0.92571021  0.36359179     0.13630
C1392       C  0.09603603  0.89422399  0.36639178    -0.20730
C1393       C  0.12175538  0.87906072  0.35888287    -0.07250
C1394       C  0.14769700  0.89540946  0.34449199     0.13620
C1395       C  0.17531360  0.88002448  0.33073620    -0.24080
H1396       H  0.16825283  0.93899441  0.33327480     0.14900
H1397       H  0.07624011  0.88155746  0.37810626     0.14930
C1398       C  0.06802972  0.94068918  0.37328977    -0.24030
H1399       H  0.19228650  0.89632287  0.31527263     0.05140
H1400       H  0.17053520  0.86274752  0.30030461     0.08370
H1401       H  0.18478874  0.86936707  0.36513369     0.08370
H1402       H  0.06133472  0.95259527  0.33786739     0.08350
H1403       H  0.07078860  0.95673204  0.40622810     0.08350
H1404       H  0.05021656  0.92393383  0.38347149     0.05130
C1405       C  0.14754689  0.90525153  0.53239318    -0.20680
C1406       C  0.12014099  0.89066028  0.52342656    -0.07240
C1407       C  0.09521650  0.90799444  0.51789195     0.13630
C1408       C  0.09868477  0.93928462  0.52057765    -0.20730
C1409       C  0.12592472  0.95389475  0.53105464    -0.07250
C1410       C  0.15073588  0.93660317  0.53667232     0.13620
C1411       C  0.18050326  0.95073780  0.54842498    -0.24080
H1412       H  0.16674329  0.89208557  0.53545840     0.14900
H1413       H  0.07951006  0.95248740  0.51739050     0.14930
C1414       C  0.06462586  0.89408580  0.51091145    -0.24030
H1415       H  0.19722178  0.93360086  0.55051023     0.05140
H1416       H  0.18055231  0.96253852  0.58629010     0.08370
H1417       H  0.18675296  0.96700908  0.51738707     0.08370
H1418       H  0.05978289  0.87714717  0.54167521     0.08350
H1419       H  0.06219153  0.88349524  0.47207123     0.08350
H1420       H  0.04781613  0.91114224  0.51371771     0.05130
In1421     In  0.12295108  0.80892825  0.78957761     1.36870
C1422       C  0.12336271  0.84982107  0.71726991     0.77210
O1423       O  0.09866443  0.84692075  0.81683168    -0.61230
O1424       O  0.14096977  0.84209753  0.84874476    -0.52150
C1425       C  0.07845048  0.78140068  0.83720909     0.69880
O1426       O  0.07926507  0.78315149  0.78811660    -0.47000
C1427       C  0.17089557  0.78644780  0.75344013     0.74580
O1428       O  0.10218200  0.83026501  0.72038205    -0.58860
O1429       O  0.16874139  0.79439359  0.80051482    -0.48950
O1430       O  0.14466408  0.84555631  0.74633480    -0.55290
C1431       C  0.11936507  0.85853831  0.84309568     0.84760
O1432       O  0.10295839  0.78593244  0.85935742    -0.57190
O1433       O  0.14677191  0.78301666  0.72956476    -0.60480
In1434     In  0.12559303  0.52592209  0.95745128     1.36870
C1435       C  0.12428510  0.97501777  0.67535079     0.77210
O1436       O  0.10268081  0.99183434  0.90936792    -0.61230
O1437       O  0.14738248  0.00263489  0.89103505    -0.52150
C1438       C  0.08018460  0.55280329  0.92254162     0.69880
O1439       O  0.08155783  0.54427249  0.96928363    -0.47000
C1440       C  0.17121178  0.55129947  0.00481485     0.74580
O1441       O  0.10298430  0.99205485  0.67785757    -0.58860
O1442       O  0.16999697  0.55003359  0.95571719    -0.48950
O1443       O  0.14702452  0.98693940  0.98848914    -0.55290
C1444       C  0.12525236  0.98451862  0.88570612     0.84760
O1445       O  0.10448833  0.55497415  0.89879406    -0.57190
O1446       O  0.14690487  0.54673641  0.02784346    -0.60480
In1447     In  0.23053651  0.67079016  0.87490756     1.36870
C1448       C  0.18387018  0.67179142  0.81753480     0.77210
O1449       O  0.25358432  0.64988685  0.80786160    -0.61230
O1450       O  0.24738330  0.62487367  0.87820474    -0.52150
C1451       C  0.25953145  0.71571789  0.92048988     0.69880
O1452       O  0.25494909  0.71594207  0.87192908    -0.47000
C1453       C  0.18683556  0.67296982  0.93962467     0.74580
O1454       O  0.20292701  0.69357862  0.81655637    -0.58860
O1455       O  0.20143395  0.64950586  0.93675622    -0.48950
O1456       O  0.19200030  0.64826322  0.83863635    -0.55290
C1457       C  0.25329010  0.62451908  0.83012447     0.84760
O1458       O  0.25678633  0.68999620  0.94141058    -0.57190
O1459       O  0.19819096  0.69551961  0.91689372    -0.60480
In1460     In  0.01877753  0.67124940  0.71883359     1.36870
C1461       C  0.06545374  0.66803655  0.99497546     0.77210
O1462       O  0.49601981  0.68776606  0.98187196    -0.61230
O1463       O  0.99419917  0.71355574  0.71854434    -0.52150
C1464       C  0.49341667  0.62346647  0.76267114     0.69880
O1465       O  0.99888954  0.62423282  0.71444282    -0.47000
C1466       C  0.06173168  0.68014302  0.78429729     0.74580
O1467       O  0.04821853  0.64514677  0.00091370    -0.58860
O1468       O  0.04711588  0.70210162  0.77050055    -0.48950
O1469       O  0.05579181  0.69246060  0.01005541    -0.55290
C1470       C  0.49159633  0.71287745  0.66956705     0.84760
O1471       O  0.49441532  0.64890090  0.78513288    -0.57190
O1472       O  0.05091252  0.65472981  0.77191787    -0.60480
In1473     In  0.37504458  0.56042301  0.95603454     1.36870
C1474       C  0.37270604  0.59776823  0.87865652     0.77170
O1475       O  0.35496743  0.60142107  0.98380656    -0.61230
O1476       O  0.39923794  0.59627288  0.00391909    -0.52150
C1477       C  0.32987715  0.53563269  0.00658371     0.69880
O1478       O  0.33126178  0.53479489  0.95750288    -0.47000
C1479       C  0.42129998  0.53409083  0.92258521     0.74580
O1480       O  0.35085538  0.58011038  0.88904192    -0.58860
O1481       O  0.41944643  0.54291883  0.96924192    -0.48950
O1482       O  0.39599767  0.59169689  0.90084979    -0.55290
C1483       C  0.37839807  0.61375458  0.66723546     0.84760
O1484       O  0.35397044  0.54223685  0.02896030    -0.57190
O1485       O  0.39715708  0.53115843  0.89871886    -0.60480
In1486     In  0.37827172  0.77513423  0.78310633     1.36870
C1487       C  0.38130253  0.73898760  0.70318354     0.77210
O1488       O  0.40014636  0.73463913  0.80585328    -0.61230
O1489       O  0.35707762  0.73925874  0.83434959    -0.52150
C1490       C  0.42201469  0.80024803  0.83696432     0.69880
O1491       O  0.42153448  0.80175161  0.78788249    -0.47000
C1492       C  0.33059297  0.80040351  0.75257225     0.74580
O1493       O  0.40255759  0.75744862  0.71360574    -0.58860
O1494       O  0.33255631  0.78874834  0.79703940    -0.48950
O1495       O  0.35828914  0.74289986  0.72823218    -0.55290
C1496       C  0.37840175  0.72248303  0.82861916     0.84760
O1497       O  0.39763774  0.79285654  0.85775608    -0.57190
O1498       O  0.35483342  0.80581889  0.72965304    -0.60480
In1499     In  0.26978378  0.91902364  0.87851224     1.36870
C1500       C  0.31568543  0.92487708  0.93861529     0.77210
O1501       O  0.24691922  0.89960502  0.94842318    -0.61230
O1502       O  0.24472164  0.87435071  0.87760315    -0.52150
C1503       C  0.24498310  0.96377084  0.83369106     0.69880
O1504       O  0.25060176  0.96406070  0.88183131    -0.47000
C1505       C  0.31359959  0.91198890  0.81617480     0.74580
O1506       O  0.30155835  0.94767223  0.92758935    -0.58860
O1507       O  0.29598342  0.88989849  0.82605385    -0.48950
O1508       O  0.30350439  0.90010140  0.92595743    -0.55290
C1509       C  0.24244226  0.87419586  0.92664887     0.84760
O1510       O  0.24555816  0.93823470  0.81189560    -0.57190
O1511       O  0.30505998  0.93721911  0.82942616    -0.60480
In1512     In  0.48223096  0.91719740  0.71065499     1.36870
C1513       C  0.43765006  0.91734234  0.98076288     0.77210
O1514       O  0.00764122  0.89793906  0.97826835    -0.61230
O1515       O  0.50335742  0.87294939  0.71547038    -0.52150
C1516       C  0.00811369  0.96377090  0.75829527     0.69880
O1517       O  0.50380488  0.96370542  0.70965774    -0.47000
C1518       C  0.43610131  0.91638923  0.77051114     0.74580
O1519       O  0.45602825  0.93968648  0.98269096    -0.58860
O1520       O  0.45080867  0.89306846  0.76645843    -0.48950
O1521       O  0.44565542  0.89399646  0.00268035    -0.55290
C1522       C  0.00893573  0.87272691  0.66722338     0.84760
O1523       O  0.00586966  0.93805636  0.77937728    -0.57190
O1524       O  0.44844551  0.93984002  0.75250123    -0.60480
In1525     In  0.50089930  0.54326273  0.84317329     1.36870
C1526       C  0.50962513  0.99201052  0.78909076     0.77210
O1527       O  0.04976414  0.55706024  0.84680513    -0.61230
O1528       O  0.02802704  0.54571861  0.91670408    -0.52150
C1529       C  0.99199485  0.59488267  0.79177224     0.69880
O1530       O  0.99324782  0.56972367  0.76976552    -0.47000
C1531       C  0.44975646  0.53348983  0.89516654     0.74580
O1532       O  0.50908597  0.51752341  0.76849965    -0.58860
O1533       O  0.47365740  0.54063046  0.91701252    -0.48950
O1534       O  0.50727478  0.99264796  0.83783969    -0.55290
C1535       C  0.05189822  0.55337932  0.89506341     0.84760
O1536       O  0.99373837  0.59365868  0.84049036    -0.57190
O1537       O  0.45199988  0.52994981  0.84679012    -0.60480
In1538     In  0.50019284  0.79198982  0.91812326     1.36870
C1539       C  0.99007414  0.74062034  0.97197583     0.77210
O1540       O  0.02578926  0.77946262  0.84547160    -0.61230
O1541       O  0.04953242  0.78706388  0.91457424    -0.52150
C1542       C  0.44964511  0.80102237  0.86692334     0.69880
O1543       O  0.45056155  0.79354933  0.91392983    -0.47000
C1544       C  0.51035914  0.84426507  0.97089481     0.74580
O1545       O  0.49317630  0.74104792  0.92333249    -0.58860
O1546       O  0.50878161  0.84298316  0.92210380    -0.48950
O1547       O  0.99022623  0.76633789  0.99249472    -0.55290
C1548       C  0.05055292  0.78113180  0.86676473     0.84760
O1549       O  0.47452614  0.80512444  0.84642545    -0.57190
O1550       O  0.50865162  0.81889388  0.99229826    -0.60480
In1551     In  0.25002831  0.54341004  0.75021897     1.36870
C1552       C  0.24282406  0.99184708  0.80407248     0.77210
O1553       O  0.20061528  0.54592474  0.74754877    -0.61230
O1554       O  0.22388804  0.55421158  0.67792114    -0.52150
C1555       C  0.25580790  0.59600740  0.80155459     0.69880
O1556       O  0.25244136  0.57093009  0.82367510    -0.47000
C1557       C  0.30163375  0.53491930  0.70162858     0.74580
O1558       O  0.24680439  0.51729271  0.82502431    -0.58860
O1559       O  0.27719569  0.53055515  0.67975084    -0.48950
O1560       O  0.24081145  0.99263085  0.75530540    -0.55290
C1561       C  0.19926874  0.55183982  0.69992318     0.84760
O1562       O  0.25806046  0.59436433  0.75284991    -0.57190
O1563       O  0.29972885  0.54261846  0.74854802    -0.60480
In1564     In  0.25083363  0.79423918  0.67416990     1.36870
C1565       C  0.24137795  0.84586394  0.95656480     0.77210
O1566       O  0.27849926  0.79199448  0.74670678    -0.61230
O1567       O  0.29936396  0.80921851  0.67927874    -0.52150
C1568       C  0.19951169  0.78589205  0.72638645     0.69880
O1569       O  0.20211339  0.78004555  0.67876653    -0.47000
C1570       C  0.26067558  0.74370947  0.95202789     0.74580
O1571       O  0.24696864  0.84504490  0.00438679    -0.58860
O1572       O  0.25624006  0.74370319  0.00032949    -0.48950
O1573       O  0.23923020  0.82033202  0.93535255    -0.55290
C1574       C  0.30202610  0.80192457  0.72616305     0.84760
O1575       O  0.22316732  0.79472498  0.74758995    -0.57190
O1576       O  0.26153189  0.76957752  0.93241961    -0.60480
C1577       C  0.38635478  0.90012605  0.99193553    -0.20680
C1578       C  0.40675680  0.91930204  0.96561347    -0.07240
C1579       C  0.39667034  0.94164076  0.93265536     0.13630
C1580       C  0.36640960  0.94520320  0.92876132    -0.20730
C1581       C  0.34619574  0.92603884  0.95557062    -0.07250
C1582       C  0.35634215  0.90294635  0.98691476     0.13620
C1583       C  0.33565036  0.88079787  0.68129491    -0.24080
H1584       H  0.39385360  0.88287595  0.68410706     0.14900
H1585       H  0.35846443  0.96164564  0.90207740     0.14930
C1586       C  0.41758544  0.96029190  0.89946962    -0.24030
H1587       H  0.34735137  0.86665243  0.70888494     0.05140
H1588       H  0.32445666  0.86532637  0.65304088     0.08370
H1589       H  0.31906196  0.89298738  0.70332807     0.08370
H1590       H  0.43101909  0.94535962  0.87573701     0.08350
H1591       H  0.43223427  0.97467763  0.92430222     0.08350
H1592       H  0.40587610  0.97490486  0.87269950     0.05130
C1593       C  0.35696609  0.93577206  0.77682584    -0.20680
C1594       C  0.34392451  0.90978728  0.79887870    -0.07240
C1595       C  0.36159033  0.88639699  0.81479575     0.13630
C1596       C  0.39189952  0.88936341  0.80643832    -0.20730
C1597       C  0.40499119  0.91580731  0.78539351    -0.07250
C1598       C  0.38710714  0.93966334  0.77111885     0.13620
C1599       C  0.39884375  0.96944594  0.74920574    -0.24080
H1600       H  0.34333236  0.95386564  0.76559954     0.14900
H1601       H  0.40546796  0.87112163  0.81702919     0.14930
C1602       C  0.34899884  0.85906676  0.84274020    -0.24030
H1603       H  0.38129471  0.98534686  0.74283386     0.05140
H1604       H  0.40934213  0.96605229  0.71098189     0.08370
H1605       H  0.41469730  0.98054143  0.77662424     0.08370
H1606       H  0.33162990  0.84771472  0.81886149     0.08350
H1607       H  0.33962914  0.86578175  0.88044968     0.08350
H1608       H  0.36586563  0.84268914  0.85071997     0.05130
C1609       C  0.40886909  0.69439755  0.68780899    -0.20680
C1610       C  0.38416071  0.71035251  0.67594476    -0.07240
C1611       C  0.35886178  0.69460772  0.65705336     0.13630
C1612       C  0.35754334  0.66324307  0.65728840    -0.20730
C1613       C  0.38133561  0.64688035  0.67337949    -0.07250
C1614       C  0.40772346  0.66278283  0.68714088     0.13620
C1615       C  0.43432549  0.64686949  0.70308877    -0.24080
H1616       H  0.42831868  0.70661245  0.70213512     0.14900
H1617       H  0.33741516  0.65153857  0.64514763     0.14930
C1618       C  0.33291408  0.71074822  0.63738778    -0.24030
H1619       H  0.45197668  0.66312167  0.71586931     0.05140
H1620       H  0.44269956  0.63388145  0.66986253     0.08370
H1621       H  0.42892954  0.63163757  0.73611078     0.08370
H1622       H  0.34026209  0.72738722  0.94086279     0.08350
H1623       H  0.32168331  0.72236030  0.66922751     0.08350
H1624       H  0.31648262  0.69481020  0.61919752     0.05130
C1625       C  0.39833575  0.64139534  0.83988337    -0.20680
C1626       C  0.37133272  0.62716229  0.85324159    -0.07240
C1627       C  0.34661948  0.64464852  0.85852707     0.13630
C1628       C  0.34961732  0.67578293  0.85061346    -0.20730
C1629       C  0.37702742  0.69013413  0.84069988    -0.07250
C1630       C  0.40189700  0.67262334  0.83609579     0.13620
C1631       C  0.43263900  0.68634537  0.83058427    -0.24080
H1632       H  0.41750301  0.62812829  0.83700292     0.14900
H1633       H  0.33047087  0.68907248  0.85324733     0.14930
C1634       C  0.31735629  0.63110696  0.87483644    -0.24030
H1635       H  0.44924355  0.66918279  0.83392116     0.05140
H1636       H  0.43709036  0.70316667  0.86190115     0.08370
H1637       H  0.43580081  0.69707306  0.79220282     0.08370
H1638       H  0.31844905  0.62070989  0.91362638     0.08350
H1639       H  0.31011070  0.61368478  0.84615452     0.08350
H1640       H  0.30098274  0.64853707  0.87753247     0.05130
C1641       C  0.11185159  0.70126619  0.77309582    -0.20680
C1642       C  0.09204966  0.68269660  0.80198862    -0.07240
C1643       C  0.10268423  0.66006333  0.83383107     0.13630
C1644       C  0.13271998  0.65676389  0.83645749    -0.20730
C1645       C  0.15257893  0.67482064  0.80694524    -0.07250
C1646       C  0.14203732  0.69695654  0.77431833     0.13620
C1647       C  0.16242120  0.71427650  0.73842724    -0.24080
H1648       H  0.10353483  0.71738331  0.74619245     0.14900
H1649       H  0.14066521  0.63970273  0.86185581     0.14930
C1650       C  0.08242263  0.63842063  0.86360543    -0.24030
H1651       H  0.15033564  0.72817183  0.71114860     0.05140
H1652       H  0.17526781  0.69851471  0.71539381     0.08370
H1653       H  0.17783042  0.72891189  0.76130171     0.08370
H1654       H  0.07051894  0.62257625  0.83684286     0.08350
H1655       H  0.06639785  0.65106856  0.88615626     0.08350
H1656       H  0.09458822  0.62445473  0.89080962     0.05130
C1657       C  0.10860543  0.69381198  0.95750885    -0.20680
C1658       C  0.09600322  0.66724207  0.97826838    -0.07240
C1659       C  0.11390688  0.64348461  0.99122629     0.13630
C1660       C  0.14394635  0.64650922  0.98056652    -0.20730
C1661       C  0.15651027  0.67299608  0.95877486    -0.07250
C1662       C  0.13849828  0.69733247  0.94799165     0.13620
C1663       C  0.14987336  0.72719626  0.92597955    -0.24080
H1664       H  0.09480739  0.71225087  0.94899225     0.14900
H1665       H  0.15761234  0.62794277  0.65543776     0.14930
C1666       C  0.10176355  0.61536745  0.68416573    -0.24030
H1667       H  0.13256086  0.74372493  0.92385733     0.05140
H1668       H  0.15806003  0.72420081  0.88585294     0.08370
H1669       H  0.16749175  0.73725726  0.95108375     0.08370
H1670       H  0.08490642  0.60391289  0.65919837     0.08350
H1671       H  0.09193744  0.62119941  0.72205709     0.08350
H1672       H  0.11900033  0.59930475  0.69159458     0.05130
C1673       C  0.14790746  0.92671355  0.67613831    -0.20680
C1674       C  0.12257446  0.94234635  0.68613863    -0.07240
C1675       C  0.09610776  0.92571013  0.69692520     0.13630
C1676       C  0.09603603  0.89422390  0.69972520    -0.20730
C1677       C  0.12175539  0.87906064  0.69221632    -0.07250
C1678       C  0.14769701  0.89540939  0.67782545     0.13620
C1679       C  0.17531361  0.88002441  0.66406967    -0.24080
H1680       H  0.16825282  0.93899434  0.66660825     0.14900
H1681       H  0.07624011  0.88155737  0.71143967     0.14930
C1682       C  0.06802971  0.94068909  0.70662315    -0.24030
H1683       H  0.19228650  0.89632280  0.64860609     0.05140
H1684       H  0.17053522  0.86274744  0.63363808     0.08370
H1685       H  0.18478876  0.86936701  0.69846717     0.08370
H1686       H  0.06133472  0.95259517  0.67120076     0.08350
H1687       H  0.07078858  0.95673195  0.73956148     0.08350
H1688       H  0.05021655  0.92393373  0.71680485     0.05130
C1689       C  0.14754691  0.90525153  0.86572652    -0.20680
C1690       C  0.12014101  0.89066027  0.85675993    -0.07240
C1691       C  0.09521653  0.90799442  0.85122528     0.13630
C1692       C  0.09868480  0.93928461  0.85391093    -0.20730
C1693       C  0.12592474  0.95389474  0.86438791    -0.07250
C1694       C  0.15073590  0.93660316  0.87000561     0.13620
C1695       C  0.18050328  0.95073781  0.88175825    -0.24080
H1696       H  0.16674331  0.89208557  0.86879176     0.14900
H1697       H  0.07951008  0.95248738  0.85072375     0.14930
C1698       C  0.06462589  0.89408578  0.84424480    -0.24030
H1699       H  0.19722180  0.93360086  0.88384352     0.05140
H1700       H  0.18055234  0.96253855  0.91962335     0.08370
H1701       H  0.18675298  0.96700906  0.85072031     0.08370
H1702       H  0.05978291  0.87714718  0.87500859     0.08350
H1703       H  0.06219156  0.88349519  0.80540460     0.08350
H1704       H  0.04781615  0.91114222  0.84705101     0.05130
In1705     In  0.62295111  0.30892832  0.12291092     1.36870
C1706       C  0.62336272  0.34982112  0.05060319     0.77210
O1707       O  0.59866446  0.34692082  0.15016498    -0.61230
O1708       O  0.64096980  0.34209761  0.18207806    -0.52150
C1709       C  0.57845051  0.28140075  0.17054238     0.69880
O1710       O  0.57926511  0.28315155  0.12144989    -0.47000
C1711       C  0.67089562  0.28644787  0.08677347     0.74580
O1712       O  0.60218203  0.33026505  0.05371534    -0.58860
O1713       O  0.66874142  0.29439366  0.13384816    -0.48950
O1714       O  0.64466409  0.34555639  0.07966809    -0.55290
C1715       C  0.61936509  0.35853839  0.17642898     0.84760
O1716       O  0.60295842  0.28593251  0.19269072    -0.57190
O1717       O  0.64677196  0.28301676  0.06289807    -0.60480
In1718     In  0.62559307  0.02592213  0.29078461     1.36870
C1719       C  0.62428509  0.47501780  0.00868397     0.77210
O1720       O  0.60268077  0.49183440  0.24270122    -0.61230
O1721       O  0.64738245  0.50263496  0.22436841    -0.52150
C1722       C  0.58018462  0.05280329  0.25587496     0.69880
O1723       O  0.58155786  0.04427249  0.30261697    -0.47000
C1724       C  0.67121181  0.05129954  0.33814820     0.74580
O1725       O  0.60298429  0.49205488  0.01119074    -0.58860
O1726       O  0.66999701  0.05003366  0.28905054    -0.48950
O1727       O  0.64702447  0.48693943  0.32182249    -0.55290
C1728       C  0.62525233  0.48451869  0.21903944     0.84760
O1729       O  0.60448835  0.05497418  0.23212740    -0.57190
O1730       O  0.64690489  0.04673646  0.36117679    -0.60480
In1731     In  0.73053661  0.17079011  0.20824081     1.36870
C1732       C  0.68387028  0.17179122  0.15086803     0.77210
O1733       O  0.75358447  0.14988684  0.14119488    -0.61230
O1734       O  0.74738343  0.12487364  0.21153801    -0.52150
C1735       C  0.75953149  0.21571786  0.25382317     0.69880
O1736       O  0.75494916  0.21594204  0.20526236    -0.47000
C1737       C  0.68683560  0.17296980  0.27295777     0.74580
O1738       O  0.70292707  0.19357847  0.14988957    -0.58860
O1739       O  0.70143402  0.14950585  0.27008946    -0.48950
O1740       O  0.69200047  0.14826305  0.17196960    -0.55290
C1741       C  0.75329025  0.12451907  0.16345774     0.84760
O1742       O  0.75678639  0.18999617  0.27474387    -0.57190
O1743       O  0.69819101  0.19551959  0.25022680    -0.60480
In1744     In  0.51877759  0.17124934  0.05216722     1.36870
C1745       C  0.56545375  0.16803653  0.32830837     0.77210
O1746       O  0.99601985  0.18776605  0.31520538    -0.61230
O1747       O  0.49419927  0.21355571  0.05187794    -0.52150
C1748       C  0.99341666  0.12346640  0.09600455     0.69880
O1749       O  0.49888959  0.12423278  0.04777628    -0.47000
C1750       C  0.56173171  0.18014279  0.11763103     0.74580
O1751       O  0.54821855  0.14514676  0.33424677    -0.58860
O1752       O  0.54711597  0.20210144  0.10383431    -0.48950
O1753       O  0.55579184  0.19246060  0.34338826    -0.55290
C1754       C  0.99159638  0.21287739  0.00290050     0.84760
O1755       O  0.99441531  0.14890082  0.11846630    -0.57190
O1756       O  0.55091246  0.15472961  0.10525162    -0.60480
In1757     In  0.87504464  0.06042299  0.28936804     1.36870
C1758       C  0.87270613  0.09776822  0.21199003     0.77170
O1759       O  0.85496747  0.10142103  0.31714006    -0.61230
O1760       O  0.89923799  0.09627285  0.33725260    -0.52150
C1761       C  0.82987718  0.03563269  0.33991716     0.69880
O1762       O  0.83126182  0.03479490  0.29083633    -0.47000
C1763       C  0.92130001  0.03409077  0.25591868     0.74580
O1764       O  0.85085548  0.08011036  0.22237536    -0.58860
O1765       O  0.91944647  0.04291877  0.30257540    -0.48950
O1766       O  0.89599775  0.09169690  0.23418336    -0.55290
C1767       C  0.87839813  0.11375457  0.00056868     0.84760
O1768       O  0.85397046  0.04223682  0.36229377    -0.57190
O1769       O  0.89715710  0.03115839  0.23205234    -0.60480
In1770     In  0.87827177  0.27513420  0.11643974     1.36870
C1771       C  0.88130258  0.23898757  0.03651694     0.77210
O1772       O  0.90014642  0.23463910  0.13918667    -0.61230
O1773       O  0.85707768  0.23925871  0.16768301    -0.52150
C1774       C  0.92201473  0.30024801  0.17029773     0.69880
O1775       O  0.92153453  0.30175159  0.12121590    -0.47000
C1776       C  0.83059303  0.30040349  0.08590566     0.74580
O1777       O  0.90255763  0.25744860  0.04693914    -0.58860
O1778       O  0.83255635  0.28874830  0.13037280    -0.48950
O1779       O  0.85828919  0.24289982  0.06156560    -0.55290
C1780       C  0.87840181  0.22248300  0.16195258     0.84760
O1781       O  0.89763778  0.29285652  0.19108949    -0.57190
O1782       O  0.85483348  0.30581886  0.06298646    -0.60480
In1783     In  0.76978377  0.41902362  0.21184550     1.36870
C1784       C  0.81568543  0.42487706  0.27194854     0.77210
O1785       O  0.74691921  0.39960500  0.28175644    -0.61230
O1786       O  0.74472162  0.37435069  0.21093641    -0.52150
C1787       C  0.74498309  0.46377082  0.16702433     0.69880
O1788       O  0.75060177  0.46406068  0.21516458    -0.47000
C1789       C  0.81359957  0.41198885  0.14950806     0.74580
O1790       O  0.80155836  0.44767221  0.26092256    -0.58860
O1791       O  0.79598341  0.38989844  0.15938715    -0.48950
O1792       O  0.80350437  0.40010137  0.25929073    -0.55290
C1793       C  0.74244225  0.37419583  0.25998213     0.84760
O1794       O  0.74555814  0.43823468  0.14522887    -0.57190
O1795       O  0.80505996  0.43721906  0.16275938    -0.60480
In1796     In  0.98223099  0.41719734  0.04398839     1.36870
C1797       C  0.93765006  0.41734232  0.31409615     0.77210
O1798       O  0.50764121  0.39793908  0.31160171    -0.61230
O1799       O  0.00335745  0.37294934  0.04880383    -0.52150
C1800       C  0.50811370  0.46377094  0.09162861     0.69880
O1801       O  0.00380490  0.46370537  0.04299116    -0.47000
C1802       C  0.93610130  0.41638916  0.10384449     0.74580
O1803       O  0.95602824  0.43968646  0.31602425    -0.58860
O1804       O  0.95080867  0.39306839  0.09979178    -0.48950
O1805       O  0.94565542  0.39399644  0.33601363    -0.55290
C1806       C  0.50893577  0.37272692  0.00055682     0.84760
O1807       O  0.50586968  0.43805641  0.11271063    -0.57190
O1808       O  0.94844551  0.43983995  0.08583461    -0.60480
In1809     In  0.00089931  0.04326266  0.17650670     1.36870
C1810       C  0.00962510  0.49201048  0.12242419     0.77210
O1811       O  0.54976413  0.05706024  0.18013849    -0.61230
O1812       O  0.52802707  0.04571851  0.25003743    -0.52150
C1813       C  0.49199483  0.09488259  0.12510564     0.69880
O1814       O  0.49324786  0.06972361  0.10309889    -0.47000
C1815       C  0.94975648  0.03348976  0.22849998     0.74580
O1816       O  0.00908599  0.01752334  0.10183307    -0.58860
O1817       O  0.97365743  0.04063036  0.25034596    -0.48950
O1818       O  0.00727472  0.49264792  0.17117311    -0.55290
C1819       C  0.55189823  0.05337928  0.22839677     0.84760
O1820       O  0.49373831  0.09365859  0.17382376    -0.57190
O1821       O  0.95199989  0.02994977  0.18012356    -0.60480
In1822     In  0.00019287  0.29198981  0.25145669     1.36870
C1823       C  0.49007416  0.24062038  0.30530904     0.77210
O1824       O  0.52578929  0.27946269  0.17880486    -0.61230
O1825       O  0.54953244  0.28706393  0.24790752    -0.52150
C1826       C  0.94964515  0.30102235  0.20025675     0.69880
O1827       O  0.95056159  0.29354931  0.24726325    -0.47000
C1828       C  0.01035915  0.34426507  0.30422822     0.74580
O1829       O  0.99317633  0.24104791  0.25666592    -0.58860
O1830       O  0.00878165  0.34298315  0.25543721    -0.48950
O1831       O  0.49022625  0.26633792  0.32582796    -0.55290
C1832       C  0.55055294  0.28113186  0.20009801     0.84760
O1833       O  0.97452618  0.30512443  0.17975887    -0.57190
O1834       O  0.00865163  0.31889387  0.32563168    -0.60480
In1835     In  0.75002841  0.04341003  0.08355221     1.36870
C1836       C  0.74282404  0.49184706  0.13740575     0.77210
O1837       O  0.70061538  0.04592476  0.08088206    -0.61230
O1838       O  0.72388812  0.05421157  0.01125440    -0.52150
C1839       C  0.75580804  0.09600739  0.13488784     0.69880
O1840       O  0.75244153  0.07093008  0.15700835    -0.47000
C1841       C  0.80163384  0.03491928  0.03496178     0.74580
O1842       O  0.74680444  0.01729272  0.15835755    -0.58860
O1843       O  0.77719577  0.03055515  0.01308405    -0.48950
O1844       O  0.74081139  0.49263084  0.08863868    -0.55290
C1845       C  0.69926883  0.05183982  0.03325647     0.84760
O1846       O  0.75806056  0.09436433  0.08618316    -0.57190
O1847       O  0.79972894  0.04261842  0.08188124    -0.60480
In1848     In  0.75083369  0.29423919  0.00750330     1.36870
C1849       C  0.74137794  0.34586392  0.28989807     0.77210
O1850       O  0.77849931  0.29199447  0.08004018    -0.61230
O1851       O  0.79936402  0.30921852  0.01261216    -0.52150
C1852       C  0.69951174  0.28589209  0.05971983     0.69880
O1853       O  0.70211345  0.28004557  0.01209991    -0.47000
C1854       C  0.76067561  0.24370945  0.28536117     0.74580
O1855       O  0.74696865  0.34504488  0.33772005    -0.58860
O1856       O  0.75624008  0.24370317  0.33366277    -0.48950
O1857       O  0.73923020  0.32033199  0.26868582    -0.55290
C1858       C  0.80202615  0.30192456  0.05949646     0.84760
O1859       O  0.72316737  0.29472501  0.08092334    -0.57190
O1860       O  0.76153190  0.26957750  0.26575288    -0.60480
C1861       C  0.88635478  0.40012601  0.32526876    -0.20680
C1862       C  0.90675681  0.41930201  0.29894671    -0.07240
C1863       C  0.89667034  0.44164073  0.26598861     0.13630
C1864       C  0.86640961  0.44520317  0.26209456    -0.20730
C1865       C  0.84619574  0.42603881  0.28890385    -0.07250
C1866       C  0.85634215  0.40294631  0.32024799     0.13620
C1867       C  0.83565043  0.38079780  0.01462820    -0.24080
H1868       H  0.89385366  0.38287587  0.01744032     0.14900
H1869       H  0.85846444  0.46164562  0.23541066     0.14930
C1870       C  0.91758545  0.46029188  0.23280289    -0.24030
H1871       H  0.84735143  0.36665235  0.04221822     0.05140
H1872       H  0.82445673  0.36532630  0.98637414     0.08370
H1873       H  0.81906202  0.39298729  0.03666136     0.08370
H1874       H  0.93101910  0.44535961  0.20907027     0.08350
H1875       H  0.93223427  0.47467761  0.25763550     0.08350
H1876       H  0.90587611  0.47490484  0.20603278     0.05130
C1877       C  0.85696608  0.43577199  0.11015911    -0.20680
C1878       C  0.84392450  0.40978722  0.13221199    -0.07240
C1879       C  0.86159032  0.38639693  0.14812907     0.13630
C1880       C  0.89189951  0.38936334  0.13977165    -0.20730
C1881       C  0.90499118  0.41580724  0.11872682    -0.07250
C1882       C  0.88710714  0.43966327  0.10445214     0.13620
C1883       C  0.89884375  0.46944586  0.08253902    -0.24080
H1884       H  0.84333236  0.45386556  0.09893278     0.14900
H1885       H  0.90546794  0.37112157  0.15036255     0.14930
C1886       C  0.84899882  0.35906672  0.17607357    -0.24030
H1887       H  0.88129471  0.48534678  0.07616711     0.05140
H1888       H  0.90934215  0.46605220  0.04431518     0.08370
H1889       H  0.91469729  0.48054136  0.10995753     0.08370
H1890       H  0.83162988  0.34771468  0.15219488     0.08350
H1891       H  0.83962913  0.36578173  0.21378304     0.08350
H1892       H  0.86586561  0.34268910  0.18405336     0.05130
C1893       C  0.90886913  0.19439753  0.02114240    -0.20680
C1894       C  0.88416076  0.21035250  0.00927815    -0.07240
C1895       C  0.85886184  0.19460771  0.99038668     0.13630
C1896       C  0.85754341  0.16324306  0.99062165    -0.20730
C1897       C  0.88133567  0.14688033  0.00671277    -0.07250
C1898       C  0.90772350  0.16278280  0.02047425     0.13620
C1899       C  0.93432552  0.14686945  0.03642218    -0.24080
H1900       H  0.92831872  0.20661242  0.03546859     0.14900
H1901       H  0.83741523  0.15153857  0.97848082     0.14930
C1902       C  0.83291415  0.21074823  0.97072110    -0.24030
H1903       H  0.95197670  0.16312162  0.04920280     0.05140
H1904       H  0.94269962  0.13388143  0.00319595     0.08370
H1905       H  0.92892954  0.13163752  0.06944416     0.08370
H1906       H  0.84026211  0.22738715  0.27419618     0.08350
H1907       H  0.82168338  0.22236029  0.00256084     0.08350
H1908       H  0.81648270  0.19481022  0.95253080     0.05130
C1909       C  0.89833585  0.14139533  0.17321688    -0.20680
C1910       C  0.87133281  0.12716228  0.18657509    -0.07240
C1911       C  0.84661957  0.14464850  0.19186054     0.13630
C1912       C  0.84961741  0.17578291  0.18394691    -0.20730
C1913       C  0.87702750  0.19013411  0.17403333    -0.07250
C1914       C  0.90189709  0.17262333  0.16942927     0.13620
C1915       C  0.93263909  0.18634537  0.16391774    -0.24080
H1916       H  0.91750311  0.12812828  0.17033646     0.14900
H1917       H  0.83047095  0.18907245  0.18658076     0.14930
C1918       C  0.81735639  0.13110693  0.20816992    -0.24030
H1919       H  0.94924364  0.16918280  0.16725468     0.05140
H1920       H  0.93709043  0.20316668  0.19523461     0.08370
H1921       H  0.93580089  0.19707304  0.12553628     0.08370
H1922       H  0.81844915  0.12070987  0.24695986     0.08350
H1923       H  0.81011080  0.11368475  0.17948801     0.08350
H1924       H  0.80098283  0.14853704  0.21086594     0.05130
C1925       C  0.61185161  0.20126601  0.10642958    -0.20680
C1926       C  0.59204972  0.18269628  0.13532222    -0.07240
C1927       C  0.60268435  0.16006288  0.16716434     0.13630
C1928       C  0.63272011  0.15676347  0.16979059    -0.20730
C1929       C  0.65257902  0.17482037  0.14027851    -0.07250
C1930       C  0.64203734  0.19695639  0.10765192     0.13620
C1931       C  0.66242116  0.21427658  0.07176104    -0.24080
H1932       H  0.60353479  0.21738324  0.07952646     0.14900
H1933       H  0.64066538  0.13970222  0.19518869     0.14930
C1934       C  0.58242281  0.13842003  0.19693852    -0.24030
H1935       H  0.65033553  0.22817192  0.04448253     0.05140
H1936       H  0.67526787  0.19851494  0.04872746     0.08370
H1937       H  0.67783029  0.22891197  0.09463570     0.08370
H1938       H  0.57051918  0.12257569  0.17017580     0.08350
H1939       H  0.56639798  0.15106785  0.21948945     0.08350
H1940       H  0.59458844  0.12445412  0.22414261     0.05130
C1941       C  0.60860542  0.19381191  0.29084161    -0.20680
C1942       C  0.59600322  0.16724202  0.31160124    -0.07240
C1943       C  0.61390689  0.14348459  0.32455927     0.13630
C1944       C  0.64394636  0.14650921  0.31389954    -0.20730
C1945       C  0.65651028  0.17299605  0.29210783    -0.07250
C1946       C  0.63849828  0.19733241  0.28132447     0.13620
C1947       C  0.64987335  0.22719619  0.25931229    -0.24080
H1948       H  0.59480737  0.21225078  0.28232490     0.14900
H1949       H  0.65761244  0.12794274  0.98877144     0.14930
C1950       C  0.60176365  0.11536742  0.01749941    -0.24030
H1951       H  0.63256084  0.24372483  0.25718993     0.05140
H1952       H  0.65806008  0.22420069  0.21918572     0.08370
H1953       H  0.66749171  0.23725723  0.28441651     0.08370
H1954       H  0.58490653  0.10391288  0.99253201     0.08350
H1955       H  0.59193753  0.12119936  0.05539077     0.08350
H1956       H  0.61900043  0.09930472  0.02492825     0.05130
C1957       C  0.64790745  0.42671358  0.00947146    -0.20680
C1958       C  0.62257445  0.44234638  0.01947181    -0.07240
C1959       C  0.59610776  0.42571016  0.03025846     0.13630
C1960       C  0.59603604  0.39422394  0.03305848    -0.20730
C1961       C  0.62175539  0.37906067  0.02554957    -0.07250
C1962       C  0.64769700  0.39540942  0.01115863     0.13620
C1963       C  0.67531360  0.38002444  0.99740283    -0.24080
H1964       H  0.66825281  0.43899437  0.99994134     0.14900
H1965       H  0.57624012  0.38155741  0.04477300     0.14930
C1966       C  0.56802972  0.44068913  0.03995647    -0.24030
H1967       H  0.69228648  0.39632282  0.98193921     0.05140
H1968       H  0.67053518  0.36274746  0.96697126     0.08370
H1969       H  0.68478875  0.36936705  0.03180032     0.08370
H1970       H  0.56133470  0.45259520  0.00453409     0.08350
H1971       H  0.57078862  0.45673200  0.07289478     0.08350
H1972       H  0.55021657  0.42393378  0.05013825     0.05130
C1973       C  0.64754692  0.40525161  0.19905983    -0.20680
C1974       C  0.62014102  0.39066034  0.19009324    -0.07240
C1975       C  0.59521653  0.40799449  0.18455858     0.13630
C1976       C  0.59868479  0.43928467  0.18724422    -0.20730
C1977       C  0.62592473  0.45389481  0.19772121    -0.07250
C1978       C  0.65073590  0.43660325  0.20333893     0.13620
C1979       C  0.68050327  0.45073790  0.21509158    -0.24080
H1980       H  0.66674333  0.39208566  0.20212508     0.14900
H1981       H  0.57951007  0.45248744  0.18405704     0.14930
C1982       C  0.56462590  0.39408583  0.17757810    -0.24030
H1983       H  0.69722179  0.43360096  0.21717687     0.05140
H1984       H  0.68055232  0.46253864  0.25295668     0.08370
H1985       H  0.68675297  0.46700916  0.18405365     0.08370
H1986       H  0.55978292  0.37714723  0.20834190     0.08350
H1987       H  0.56219157  0.38349524  0.13873791     0.08350
H1988       H  0.54781615  0.41114226  0.18038432     0.05130
In1989     In  0.62295111  0.30892833  0.45624426     1.36870
C1990       C  0.62336270  0.34982110  0.38393649     0.77210
O1991       O  0.59866447  0.34692084  0.48349830    -0.61230
O1992       O  0.64096981  0.34209763  0.51541136    -0.52150
C1993       C  0.57845052  0.28140076  0.50387577     0.69880
O1994       O  0.57926511  0.28315155  0.45478327    -0.47000
C1995       C  0.67089562  0.28644787  0.42010683     0.74580
O1996       O  0.60218201  0.33026503  0.38704868    -0.58860
O1997       O  0.66874142  0.29439368  0.46718152    -0.48950
O1998       O  0.64466408  0.34555637  0.41300136    -0.55290
C1999       C  0.61936510  0.35853841  0.50976228     0.84760
O2000       O  0.60295843  0.28593254  0.52602409    -0.57190
O2001       O  0.64677196  0.28301673  0.39623145    -0.60480
In2002     In  0.62559307  0.02592209  0.62411807     1.36870
C2003       C  0.62428506  0.47501779  0.34201734     0.77210
O2004       O  0.60268078  0.49183437  0.57603468    -0.61230
O2005       O  0.64738245  0.50263497  0.55770185    -0.52150
C2006       C  0.58018463  0.05280327  0.58920839     0.69880
O2007       O  0.58155786  0.04427248  0.63595041    -0.47000
C2008       C  0.67121181  0.05129949  0.67148165     0.74580
O2009       O  0.60298425  0.49205486  0.34452412    -0.58860
O2010       O  0.66999701  0.05003361  0.62238399    -0.48950
O2011       O  0.64702448  0.48693940  0.65515592    -0.55290
C2012       C  0.62525234  0.48451869  0.55237287     0.84760
O2013       O  0.60448836  0.05497414  0.56546084    -0.57190
O2014       O  0.64690490  0.04673642  0.69451025    -0.60480
In2015     In  0.73053659  0.17079016  0.54157413     1.36870
C2016       C  0.68387024  0.17179136  0.48420143     0.77210
O2017       O  0.75358442  0.14988687  0.47452817    -0.61230
O2018       O  0.74738339  0.12487368  0.54487130    -0.52150
C2019       C  0.75953151  0.21571790  0.58715645     0.69880
O2020       O  0.75494916  0.21594208  0.53859565    -0.47000
C2021       C  0.68683565  0.17296985  0.60629122     0.74580
O2022       O  0.70292706  0.19357858  0.48322295    -0.58860
O2023       O  0.70143404  0.14950589  0.60342283    -0.48950
O2024       O  0.69200040  0.14826317  0.50530297    -0.55290
C2025       C  0.75329020  0.12451910  0.49679103     0.84760
O2026       O  0.75678641  0.18999621  0.60807714    -0.57190
O2027       O  0.69819104  0.19551963  0.58356024    -0.60480
In2028     In  0.51877758  0.17124936  0.38550048     1.36870
C2029       C  0.56545382  0.16803659  0.66164201     0.77210
O2030       O  0.99601989  0.18776605  0.64853882    -0.61230
O2031       O  0.49419922  0.21355569  0.38521120    -0.52150
C2032       C  0.99341668  0.12346643  0.42933794     0.69880
O2033       O  0.49888961  0.12423277  0.38110962    -0.47000
C2034       C  0.56173170  0.18014293  0.45096426     0.74580
O2035       O  0.54821861  0.14514681  0.66758029    -0.58860
O2036       O  0.54711593  0.20210155  0.43716749    -0.48950
O2037       O  0.55579190  0.19246065  0.67672195    -0.55290
C2038       C  0.99159637  0.21287741  0.33623383     0.84760
O2039       O  0.99441533  0.14890085  0.45179968    -0.57190
O2040       O  0.55091250  0.15472972  0.43858489    -0.60480
In2041     In  0.87504463  0.06042298  0.62270139     1.36870
C2042       C  0.87270609  0.09776820  0.54532336     0.77170
O2043       O  0.85496747  0.10142103  0.65047341    -0.61230
O2044       O  0.89923798  0.09627286  0.67058592    -0.52150
C2045       C  0.82987719  0.03563267  0.67325054     0.69880
O2046       O  0.83126182  0.03479488  0.62416971    -0.47000
C2047       C  0.92130001  0.03409079  0.58925204     0.74580
O2048       O  0.85085543  0.08011034  0.55570874    -0.58860
O2049       O  0.91944647  0.04291879  0.63590876    -0.48950
O2050       O  0.89599772  0.09169687  0.56751665    -0.55290
C2051       C  0.87839814  0.11375459  0.33390202     0.84760
O2052       O  0.85397047  0.04223682  0.69562714    -0.57190
O2053       O  0.89715710  0.03115839  0.56538570    -0.60480
In2054     In  0.87827177  0.27513419  0.44977314     1.36870
C2055       C  0.88130259  0.23898758  0.36985032     0.77210
O2056       O  0.90014640  0.23463908  0.47252006    -0.61230
O2057       O  0.85707766  0.23925869  0.50101638    -0.52150
C2058       C  0.92201473  0.30024799  0.50363115     0.69880
O2059       O  0.92153453  0.30175157  0.45454932    -0.47000
C2060       C  0.83059302  0.30040348  0.41923904     0.74580
O2061       O  0.90255764  0.25744861  0.38027254    -0.58860
O2062       O  0.83255635  0.28874830  0.46370619    -0.48950
O2063       O  0.85828920  0.24289983  0.39489897    -0.55290
C2064       C  0.87840178  0.22248298  0.49528595     0.84760
O2065       O  0.89763777  0.29285650  0.52442290    -0.57190
O2066       O  0.85483347  0.30581886  0.39631985    -0.60480
In2067     In  0.76978378  0.41902366  0.54517885     1.36870
C2068       C  0.81568544  0.42487711  0.60528188     0.77210
O2069       O  0.74691922  0.39960503  0.61508979    -0.61230
O2070       O  0.74472163  0.37435073  0.54426976    -0.52150
C2071       C  0.74498309  0.46377085  0.50035770     0.69880
O2072       O  0.75060176  0.46406072  0.54849795    -0.47000
C2073       C  0.81359958  0.41198889  0.48284140     0.74580
O2074       O  0.80155837  0.44767225  0.59425590    -0.58860
O2075       O  0.79598341  0.38989848  0.49272050    -0.48950
O2076       O  0.80350439  0.40010142  0.59262408    -0.55290
C2077       C  0.74244226  0.37419587  0.59331548     0.84760
O2078       O  0.74555814  0.43823472  0.47856223    -0.57190
O2079       O  0.80505996  0.43721909  0.49609271    -0.60480
In2080     In  0.98223098  0.41719737  0.37732167     1.36870
C2081       C  0.93765007  0.41734237  0.64742952     0.77210
O2082       O  0.50764120  0.39793912  0.64493498    -0.61230
O2083       O  0.00335744  0.37294936  0.38213712    -0.52150
C2084       C  0.50811366  0.46377087  0.42496211     0.69880
O2085       O  0.00380490  0.46370540  0.37632443    -0.47000
C2086       C  0.93610130  0.41638920  0.43717777     0.74580
O2087       O  0.95602825  0.43968651  0.64935760    -0.58860
O2088       O  0.95080867  0.39306843  0.43312509    -0.48950
O2089       O  0.94565542  0.39399650  0.66934700    -0.55290
C2090       C  0.50893575  0.37272688  0.33389022     0.84760
O2091       O  0.50586963  0.43805632  0.44604410    -0.57190
O2092       O  0.94844550  0.43983999  0.41916786    -0.60480
In2093     In  0.00089932  0.04326269  0.50984008     1.36870
C2094       C  0.00962509  0.49201051  0.45575745     0.77210
O2095       O  0.54976416  0.05706020  0.51347190    -0.61230
O2096       O  0.52802707  0.04571854  0.58337085    -0.52150
C2097       C  0.49199488  0.09488260  0.45843900     0.69880
O2098       O  0.49324791  0.06972361  0.43643226    -0.47000
C2099       C  0.94975649  0.03348979  0.56183335     0.74580
O2100       O  0.00908598  0.01752337  0.43516644    -0.58860
O2101       O  0.97365743  0.04063040  0.58367933    -0.48950
O2102       O  0.00727470  0.49264795  0.50450637    -0.55290
C2103       C  0.55189825  0.05337928  0.56173018     0.84760
O2104       O  0.49373834  0.09365860  0.50715712    -0.57190
O2105       O  0.95199990  0.02994977  0.51345693    -0.60480
In2106     In  0.00019288  0.29198981  0.58479011     1.36870
C2107       C  0.49007421  0.24062040  0.63864249     0.77210
O2108       O  0.52578930  0.27946268  0.51213827    -0.61230
O2109       O  0.54953245  0.28706396  0.58124091    -0.52150
C2110       C  0.94964515  0.30102233  0.53359017     0.69880
O2111       O  0.95056159  0.29354929  0.58059667    -0.47000
C2112       C  0.01035915  0.34426508  0.63756161     0.74580
O2113       O  0.99317635  0.24104791  0.58999936    -0.58860
O2114       O  0.00878165  0.34298315  0.58877060    -0.48950
O2115       O  0.49022629  0.26633795  0.65916139    -0.55290
C2116       C  0.55055295  0.28113187  0.53343140     0.84760
O2117       O  0.97452618  0.30512442  0.51309230    -0.57190
O2118       O  0.00865161  0.31889389  0.65896510    -0.60480
In2119     In  0.75002839  0.04341006  0.41688552     1.36870
C2120       C  0.74282403  0.49184710  0.47073913     0.77210
O2121       O  0.70061536  0.04592481  0.41421532    -0.61230
O2122       O  0.72388813  0.05421161  0.34458768    -0.52150
C2123       C  0.75580800  0.09600742  0.46822114     0.69880
O2124       O  0.75244148  0.07093011  0.49034165    -0.47000
C2125       C  0.80163383  0.03491931  0.36829512     0.74580
O2126       O  0.74680443  0.01729275  0.49169086    -0.58860
O2127       O  0.77719577  0.03055516  0.34641738    -0.48950
O2128       O  0.74081140  0.49263087  0.42197205    -0.55290
C2129       C  0.69926883  0.05183987  0.36658973     0.84760
O2130       O  0.75806054  0.09436436  0.41951646    -0.57190
O2131       O  0.79972893  0.04261846  0.41521456    -0.60480
In2132     In  0.75083369  0.29423919  0.34083666     1.36870
C2133       C  0.74137795  0.34586395  0.62323140     0.77210
O2134       O  0.77849931  0.29199444  0.41337354    -0.61230
O2135       O  0.79936402  0.30921852  0.34594554    -0.52150
C2136       C  0.69951174  0.28589209  0.39305319     0.69880
O2137       O  0.70211345  0.28004555  0.34543328    -0.47000
C2138       C  0.76067563  0.24370949  0.61869446     0.74580
O2139       O  0.74696866  0.34504491  0.67105338    -0.58860
O2140       O  0.75624011  0.24370320  0.66699606    -0.48950
O2141       O  0.73923020  0.32033203  0.60201915    -0.55290
C2142       C  0.80202615  0.30192455  0.39282983     0.84760
O2143       O  0.72316737  0.29472504  0.41425669    -0.57190
O2144       O  0.76153191  0.26957754  0.59908618    -0.60480
C2145       C  0.88635478  0.40012608  0.65860215    -0.20680
C2146       C  0.90675681  0.41930207  0.63228009    -0.07240
C2147       C  0.89667035  0.44164078  0.59932196     0.13630
C2148       C  0.86640961  0.44520322  0.59542790    -0.20730
C2149       C  0.84619575  0.42603887  0.62223721    -0.07250
C2150       C  0.85634215  0.40294638  0.65358137     0.13620
C2151       C  0.83565041  0.38079782  0.34796153    -0.24080
H2152       H  0.89385364  0.38287590  0.35077365     0.14900
H2153       H  0.85846445  0.46164566  0.56874397     0.14930
C2154       C  0.91758546  0.46029191  0.56613621    -0.24030
H2155       H  0.84735142  0.36665238  0.37555156     0.05140
H2156       H  0.82445671  0.36532632  0.31970749     0.08370
H2157       H  0.81906201  0.39298732  0.36999468     0.08370
H2158       H  0.93101910  0.44535962  0.54240360     0.08350
H2159       H  0.93223429  0.47467764  0.59096881     0.08350
H2160       H  0.90587612  0.47490487  0.53936609     0.05130
C2161       C  0.85696608  0.43577203  0.44349242    -0.20680
C2162       C  0.84392450  0.40978726  0.46554531    -0.07240
C2163       C  0.86159032  0.38639697  0.48146239     0.13630
C2164       C  0.89189951  0.38936338  0.47310495    -0.20730
C2165       C  0.90499118  0.41580728  0.45206012    -0.07250
C2166       C  0.88710713  0.43966331  0.43778544     0.13620
C2167       C  0.89884374  0.46944590  0.41587231    -0.24080
H2168       H  0.84333235  0.45386560  0.43226610     0.14900
H2169       H  0.90546795  0.37112161  0.48369585     0.14930
C2170       C  0.84899883  0.35906675  0.50940688    -0.24030
H2171       H  0.88129470  0.48534682  0.40950040     0.05140
H2172       H  0.90934213  0.46605224  0.37764847     0.08370
H2173       H  0.91469728  0.48054139  0.44329081     0.08370
H2174       H  0.83162989  0.34771471  0.48552820     0.08350
H2175       H  0.83962913  0.36578176  0.54711635     0.08350
H2176       H  0.86586562  0.34268914  0.51738666     0.05130
C2177       C  0.90886915  0.19439754  0.35447576    -0.20680
C2178       C  0.88416078  0.21035251  0.34261150    -0.07240
C2179       C  0.85886186  0.19460773  0.32372002     0.13630
C2180       C  0.85754343  0.16324308  0.32395498    -0.20730
C2181       C  0.88133568  0.14688035  0.34004610    -0.07250
C2182       C  0.90772351  0.16278281  0.35380760     0.13620
C2183       C  0.93432553  0.14686946  0.36975554    -0.24080
H2184       H  0.92831873  0.20661243  0.36880196     0.14900
H2185       H  0.83741525  0.15153859  0.31181413     0.14930
C2186       C  0.83291417  0.21074825  0.30405443    -0.24030
H2187       H  0.95197671  0.16312163  0.38253617     0.05140
H2188       H  0.94269963  0.13388144  0.33652931     0.08370
H2189       H  0.92892954  0.13163752  0.40277751     0.08370
H2190       H  0.84026210  0.22738716  0.60752951     0.08350
H2191       H  0.82168339  0.22236032  0.33589417     0.08350
H2192       H  0.81648272  0.19481025  0.28586412     0.05130
C2193       C  0.89833580  0.14139530  0.50655019    -0.20680
C2194       C  0.87133277  0.12716226  0.51990842    -0.07240
C2195       C  0.84661952  0.14464848  0.52519389     0.13630
C2196       C  0.84961737  0.17578289  0.51728026    -0.20730
C2197       C  0.87702746  0.19013409  0.50736668    -0.07250
C2198       C  0.90189705  0.17262330  0.50276260     0.13620
C2199       C  0.93263905  0.18634534  0.49725109    -0.24080
H2200       H  0.91750306  0.12812825  0.50366975     0.14900
H2201       H  0.83047091  0.18907244  0.51991412     0.14930
C2202       C  0.81735634  0.13110691  0.54150327    -0.24030
H2203       H  0.94924360  0.16918276  0.50058800     0.05140
H2204       H  0.93709040  0.20316664  0.52856797     0.08370
H2205       H  0.93580085  0.19707302  0.45886963     0.08370
H2206       H  0.81844911  0.12070986  0.58029322     0.08350
H2207       H  0.81011075  0.11368474  0.51282137     0.08350
H2208       H  0.80098279  0.14853703  0.54419931     0.05130
C2209       C  0.61185160  0.20126614  0.43976277    -0.20680
C2210       C  0.59204969  0.18269648  0.46865551    -0.07240
C2211       C  0.60268430  0.16006315  0.50049781     0.13630
C2212       C  0.63272006  0.15676373  0.50312412    -0.20730
C2213       C  0.65257898  0.17482054  0.47361193    -0.07250
C2214       C  0.64203733  0.19695650  0.44098518     0.13620
C2215       C  0.66242116  0.21427657  0.40509417    -0.24080
H2216       H  0.60353480  0.21738331  0.41285953     0.14900
H2217       H  0.64066532  0.13970253  0.52852233     0.14930
C2218       C  0.58242275  0.13842038  0.53027210    -0.24030
H2219       H  0.65033557  0.22817190  0.37781559     0.05140
H2220       H  0.67526783  0.19851485  0.38206067     0.08370
H2221       H  0.67783035  0.22891196  0.42796872     0.08370
H2222       H  0.57051908  0.12257601  0.50350948     0.08350
H2223       H  0.56639794  0.15106825  0.55282299     0.08350
H2224       H  0.59458837  0.12445448  0.55747624     0.05130
C2225       C  0.60860550  0.19381201  0.62417535    -0.20680
C2226       C  0.59600329  0.16724210  0.64493491    -0.07240
C2227       C  0.61390696  0.14348465  0.65789284     0.13630
C2228       C  0.64394642  0.14650926  0.64723307    -0.20730
C2229       C  0.65651034  0.17299611  0.62544139    -0.07250
C2230       C  0.63849835  0.19733250  0.61465815     0.13620
C2231       C  0.64987343  0.22719628  0.59264603    -0.24080
H2232       H  0.59480746  0.21225089  0.61565872     0.14900
H2233       H  0.65761244  0.12794277  0.32210469     0.14930
C2234       C  0.60176366  0.11536745  0.35083273    -0.24030
H2235       H  0.63256094  0.24372495  0.59052378     0.05140
H2236       H  0.65806011  0.22420082  0.55251943     0.08370
H2237       H  0.66749182  0.23725729  0.61775023     0.08370
H2238       H  0.58490653  0.10391288  0.32586538     0.08350
H2239       H  0.59193755  0.12119942  0.38872409     0.08350
H2240       H  0.61900045  0.09930476  0.35826160     0.05130
C2241       C  0.64790741  0.42671356  0.34280478    -0.20680
C2242       C  0.62257442  0.44234637  0.35280516    -0.07240
C2243       C  0.59610773  0.42571015  0.36359180     0.13630
C2244       C  0.59603600  0.39422392  0.36639180    -0.20730
C2245       C  0.62175535  0.37906066  0.35888287    -0.07250
C2246       C  0.64769696  0.39540940  0.34449192     0.13620
C2247       C  0.67531356  0.38002443  0.33073608    -0.24080
H2248       H  0.66825277  0.43899436  0.33327466     0.14900
H2249       H  0.57624009  0.38155739  0.37810631     0.14930
C2250       C  0.56802969  0.44068911  0.37328985    -0.24030
H2251       H  0.69228644  0.39632282  0.31527246     0.05140
H2252       H  0.67053514  0.36274745  0.30030452     0.08370
H2253       H  0.68478873  0.36936703  0.36513356     0.08370
H2254       H  0.56133466  0.45259518  0.33786748     0.08350
H2255       H  0.57078860  0.45673197  0.40622817     0.08350
H2256       H  0.55021655  0.42393375  0.38347162     0.05130
C2257       C  0.64754693  0.40525163  0.53239315    -0.20680
C2258       C  0.62014104  0.39066036  0.52342653    -0.07240
C2259       C  0.59521655  0.40799451  0.51789187     0.13630
C2260       C  0.59868481  0.43928470  0.52057755    -0.20730
C2261       C  0.62592475  0.45389483  0.53105458    -0.07250
C2262       C  0.65073591  0.43660326  0.53667229     0.13620
C2263       C  0.68050328  0.45073791  0.54842498    -0.24080
H2264       H  0.66674334  0.39208568  0.53545840     0.14900
H2265       H  0.57951009  0.45248747  0.51739037     0.14930
C2266       C  0.56462592  0.39408586  0.51091136    -0.24030
H2267       H  0.69722180  0.43360097  0.55051026     0.05140
H2268       H  0.68055232  0.46253863  0.58629009     0.08370
H2269       H  0.68675298  0.46700918  0.51738707     0.08370
H2270       H  0.55978293  0.37714726  0.54167515     0.08350
H2271       H  0.56219159  0.38349527  0.47207116     0.08350
H2272       H  0.54781617  0.41114230  0.51371757     0.05130
In2273     In  0.62295112  0.30892829  0.78957760     1.36870
C2274       C  0.62336271  0.34982108  0.71726987     0.77210
O2275       O  0.59866446  0.34692078  0.81683166    -0.61230
O2276       O  0.64096980  0.34209757  0.84874475    -0.52150
C2277       C  0.57845053  0.28140071  0.83720907     0.69880
O2278       O  0.57926512  0.28315151  0.78811658    -0.47000
C2279       C  0.67089563  0.28644786  0.75344013     0.74580
O2280       O  0.60218203  0.33026500  0.72038202    -0.58860
O2281       O  0.66874143  0.29439364  0.80051483    -0.48950
O2282       O  0.64466408  0.34555636  0.74633477    -0.55290
C2283       C  0.61936509  0.35853835  0.84309566     0.84760
O2284       O  0.60295843  0.28593247  0.85935740    -0.57190
O2285       O  0.64677198  0.28301674  0.72956474    -0.60480
In2286     In  0.62559307  0.02592204  0.95745137     1.36870
C2287       C  0.62428508  0.47501776  0.67535080     0.77210
O2288       O  0.60268078  0.49183437  0.90936786    -0.61230
O2289       O  0.64738245  0.50263493  0.89103499    -0.52150
C2290       C  0.58018462  0.05280322  0.92254172     0.69880
O2291       O  0.58155786  0.04427241  0.96928373    -0.47000
C2292       C  0.67121180  0.05129947  0.00481495     0.74580
O2293       O  0.60298428  0.49205484  0.67785761    -0.58860
O2294       O  0.66999700  0.05003359  0.95571729    -0.48950
O2295       O  0.64702450  0.48693943  0.98848908    -0.55290
C2296       C  0.62525233  0.48451866  0.88570606     0.84760
O2297       O  0.60448835  0.05497411  0.89879418    -0.57190
O2298       O  0.64690489  0.04673637  0.02784356    -0.60480
In2299     In  0.73053660  0.17079009  0.87490756     1.36870
C2300       C  0.68387025  0.17179122  0.81753485     0.77210
O2301       O  0.75358443  0.14988682  0.80786161    -0.61230
O2302       O  0.74738343  0.12487363  0.87820474    -0.52150
C2303       C  0.75953150  0.21571786  0.92048985     0.69880
O2304       O  0.75494914  0.21594202  0.87192905    -0.47000
C2305       C  0.68683563  0.17296979  0.93962459     0.74580
O2306       O  0.70292705  0.19357845  0.81655636    -0.58860
O2307       O  0.70143403  0.14950584  0.93675625    -0.48950
O2308       O  0.69200043  0.14826304  0.83863642    -0.55290
C2309       C  0.75329023  0.12451905  0.83012447     0.84760
O2310       O  0.75678641  0.18999617  0.94141057    -0.57190
O2311       O  0.69819103  0.19551957  0.91689362    -0.60480
In2312     In  0.51877760  0.17124936  0.71883400     1.36870
C2313       C  0.56545377  0.16803654  0.99497515     0.77210
O2314       O  0.99601985  0.18776603  0.98187204    -0.61230
O2315       O  0.49419926  0.21355572  0.71854467    -0.52150
C2316       C  0.99341665  0.12346640  0.76267127     0.69880
O2317       O  0.49888963  0.12423279  0.71444302    -0.47000
C2318       C  0.56173168  0.18014281  0.78429789     0.74580
O2319       O  0.54821856  0.14514677  0.00091347    -0.58860
O2320       O  0.54711594  0.20210147  0.77050115    -0.48950
O2321       O  0.55579186  0.19246060  0.01005509    -0.55290
C2322       C  0.99159641  0.21287741  0.66956727     0.84760
O2323       O  0.99441527  0.14890081  0.78513304    -0.57190
O2324       O  0.55091245  0.15472964  0.77191845    -0.60480
In2325     In  0.87504463  0.06042298  0.95603469     1.36870
C2326       C  0.87270613  0.09776822  0.87865670     0.77170
O2327       O  0.85496746  0.10142101  0.98380673    -0.61230
O2328       O  0.89923798  0.09627284  0.00391926    -0.52150
C2329       C  0.82987718  0.03563267  0.00658381     0.69880
O2330       O  0.83126181  0.03479490  0.95750298    -0.47000
C2331       C  0.92130001  0.03409076  0.92258533     0.74580
O2332       O  0.85085547  0.08011036  0.88904203    -0.58860
O2333       O  0.91944647  0.04291876  0.96924205    -0.48950
O2334       O  0.89599775  0.09169689  0.90085002    -0.55290
C2335       C  0.87839814  0.11375459  0.66723534     0.84760
O2336       O  0.85397047  0.04223680  0.02896042    -0.57190
O2337       O  0.89715710  0.03115838  0.89871899    -0.60480
In2338     In  0.87827177  0.27513421  0.78310642     1.36870
C2339       C  0.88130258  0.23898759  0.70318363     0.77210
O2340       O  0.90014642  0.23463911  0.80585336    -0.61230
O2341       O  0.85707768  0.23925872  0.83434969    -0.52150
C2342       C  0.92201474  0.30024801  0.83696443     0.69880
O2343       O  0.92153453  0.30175159  0.78788260    -0.47000
C2344       C  0.83059303  0.30040351  0.75257233     0.74580
O2345       O  0.90255763  0.25744862  0.71360582    -0.58860
O2346       O  0.83255636  0.28874833  0.79703948    -0.48950
O2347       O  0.85828920  0.24289984  0.72823228    -0.55290
C2348       C  0.87840181  0.22248301  0.82861926     0.84760
O2349       O  0.89763778  0.29285653  0.85775618    -0.57190
O2350       O  0.85483348  0.30581888  0.72965314    -0.60480
In2351     In  0.76978379  0.41902365  0.87851222     1.36870
C2352       C  0.81568544  0.42487707  0.93861528     0.77210
O2353       O  0.74691922  0.39960501  0.94842314    -0.61230
O2354       O  0.74472165  0.37435072  0.87760310    -0.52150
C2355       C  0.74498311  0.46377086  0.83369108     0.69880
O2356       O  0.75060178  0.46406071  0.88183133    -0.47000
C2357       C  0.81359960  0.41198892  0.81617479     0.74580
O2358       O  0.80155838  0.44767222  0.92758933    -0.58860
O2359       O  0.79598344  0.38989851  0.82605383    -0.48950
O2360       O  0.80350439  0.40010139  0.92595743    -0.55290
C2361       C  0.74244227  0.37419585  0.92664882     0.84760
O2362       O  0.74555816  0.43823473  0.81189561    -0.57190
O2363       O  0.80505999  0.43721912  0.82942615    -0.60480
In2364     In  0.98223099  0.41719742  0.71065502     1.36870
C2365       C  0.93765008  0.41734231  0.98076287     0.77210
O2366       O  0.50764122  0.39793911  0.97826829    -0.61230
O2367       O  0.00335744  0.37294940  0.71547049    -0.52150
C2368       C  0.50811369  0.46377096  0.75829526     0.69880
O2369       O  0.00380491  0.46370544  0.70965773    -0.47000
C2370       C  0.93610132  0.41638925  0.77051115     0.74580
O2371       O  0.95602826  0.43968645  0.98269098    -0.58860
O2372       O  0.95080869  0.39306848  0.76645846    -0.48950
O2373       O  0.94565543  0.39399643  0.00268033    -0.55290
C2374       C  0.50893575  0.37272693  0.66722352     0.84760
O2375       O  0.50586965  0.43805643  0.77937730    -0.57190
O2376       O  0.94844552  0.43984003  0.75250124    -0.60480
In2377     In  0.00089931  0.04326265  0.84317337     1.36870
C2378       C  0.00962513  0.49201058  0.78909072     0.77210
O2379       O  0.54976414  0.05706023  0.84680526    -0.61230
O2380       O  0.52802707  0.04571844  0.91670417    -0.52150
C2381       C  0.49199485  0.09488259  0.79177237     0.69880
O2382       O  0.49324790  0.06972362  0.76976561    -0.47000
C2383       C  0.94975648  0.03348975  0.89516664     0.74580
O2384       O  0.00908596  0.01752334  0.76849971    -0.58860
O2385       O  0.97365742  0.04063036  0.91701261    -0.48950
O2386       O  0.00727477  0.49264804  0.83783965    -0.55290
C2387       C  0.55189824  0.05337923  0.89506352     0.84760
O2388       O  0.49373830  0.09365859  0.84049049    -0.57190
O2389       O  0.95199989  0.02994973  0.84679022    -0.60480
In2390     In  0.00019287  0.29198979  0.91812338     1.36870
C2391       C  0.49007419  0.24062040  0.97197578     0.77210
O2392       O  0.52578930  0.27946267  0.84547156    -0.61230
O2393       O  0.54953246  0.28706393  0.91457421    -0.52150
C2394       C  0.94964515  0.30102235  0.86692345     0.69880
O2395       O  0.95056159  0.29354930  0.91392994    -0.47000
C2396       C  0.01035916  0.34426504  0.97089492     0.74580
O2397       O  0.99317633  0.24104789  0.92333260    -0.58860
O2398       O  0.00878166  0.34298313  0.92210391    -0.48950
O2399       O  0.49022631  0.26633794  0.99249468    -0.55290
C2400       C  0.55055296  0.28113184  0.86676470     0.84760
O2401       O  0.97452619  0.30512442  0.84642557    -0.57190
O2402       O  0.00865163  0.31889385  0.99229838    -0.60480
In2403     In  0.75002840  0.04341002  0.75021894     1.36870
C2404       C  0.74282405  0.49184710  0.80407252     0.77210
O2405       O  0.70061538  0.04592476  0.74754877    -0.61230
O2406       O  0.72388813  0.05421157  0.67792111    -0.52150
C2407       C  0.75580803  0.09600737  0.80155457     0.69880
O2408       O  0.75244152  0.07093006  0.82367508    -0.47000
C2409       C  0.80163384  0.03491928  0.70162851     0.74580
O2410       O  0.74680445  0.01729270  0.82502428    -0.58860
O2411       O  0.77719578  0.03055512  0.67975079    -0.48950
O2412       O  0.74081141  0.49263088  0.75530545    -0.55290
C2413       C  0.69926883  0.05183983  0.69992317     0.84760
O2414       O  0.75806055  0.09436431  0.75284989    -0.57190
O2415       O  0.79972894  0.04261843  0.74854795    -0.60480
In2416     In  0.75083370  0.29423921  0.67416996     1.36870
C2417       C  0.74137795  0.34586393  0.95656474     0.77210
O2418       O  0.77849932  0.29199448  0.74670684    -0.61230
O2419       O  0.79936403  0.30921854  0.67927883    -0.52150
C2420       C  0.69951175  0.28589209  0.72638649     0.69880
O2421       O  0.70211346  0.28004558  0.67876657    -0.47000
C2422       C  0.76067561  0.24370945  0.95202784     0.74580
O2423       O  0.74696865  0.34504488  0.00438672    -0.58860
O2424       O  0.75624010  0.24370318  0.00032944    -0.48950
O2425       O  0.73923022  0.32033201  0.93535247    -0.55290
C2426       C  0.80202616  0.30192458  0.72616313     0.84760
O2427       O  0.72316738  0.29472502  0.74759000    -0.57190
O2428       O  0.76153189  0.26957749  0.93241953    -0.60480
C2429       C  0.88635479  0.40012600  0.99193545    -0.20680
C2430       C  0.90675682  0.41930201  0.96561343    -0.07240
C2431       C  0.89667036  0.44164074  0.93265536     0.13630
C2432       C  0.86640962  0.44520319  0.92876132    -0.20730
C2433       C  0.84619576  0.42603881  0.95557059    -0.07250
C2434       C  0.85634216  0.40294630  0.98691469     0.13620
C2435       C  0.83565041  0.38079790  0.68129492    -0.24080
H2436       H  0.89385364  0.38287598  0.68410706     0.14900
H2437       H  0.85846445  0.46164565  0.90207744     0.14930
C2438       C  0.91758546  0.46029192  0.89946967    -0.24030
H2439       H  0.84735141  0.36665246  0.70888495     0.05140
H2440       H  0.82445671  0.36532639  0.65304089     0.08370
H2441       H  0.81906201  0.39298741  0.70332806     0.08370
H2442       H  0.93101912  0.44535966  0.87573704     0.08350
H2443       H  0.93223427  0.47467765  0.92430230     0.08350
H2444       H  0.90587612  0.47490488  0.87269956     0.05130
C2445       C  0.85696611  0.43577208  0.77682585    -0.20680
C2446       C  0.84392453  0.40978730  0.79887871    -0.07240
C2447       C  0.86159034  0.38639700  0.81479575     0.13630
C2448       C  0.89189953  0.38936343  0.80643832    -0.20730
C2449       C  0.90499120  0.41580733  0.78539352    -0.07250
C2450       C  0.88710716  0.43966336  0.77111887     0.13620
C2451       C  0.89884377  0.46944596  0.74920577    -0.24080
H2452       H  0.84333238  0.45386566  0.76559956     0.14900
H2453       H  0.90546797  0.37112165  0.81702920     0.14930
C2454       C  0.84899885  0.35906678  0.84274019    -0.24030
H2455       H  0.88129473  0.48534688  0.74283389     0.05140
H2456       H  0.90934215  0.46605231  0.71098191     0.08370
H2457       H  0.91469732  0.48054144  0.77662426     0.08370
H2458       H  0.83162992  0.34771474  0.81886149     0.08350
H2459       H  0.83962915  0.36578176  0.88044967     0.08350
H2460       H  0.86586564  0.34268915  0.85071996     0.05130
C2461       C  0.90886914  0.19439754  0.68780909    -0.20680
C2462       C  0.88416077  0.21035251  0.67594482    -0.07240
C2463       C  0.85886186  0.19460773  0.65705334     0.13630
C2464       C  0.85754342  0.16324309  0.65728830    -0.20730
C2465       C  0.88133568  0.14688035  0.67337942    -0.07250
C2466       C  0.90772351  0.16278282  0.68714092     0.13620
C2467       C  0.93432553  0.14686946  0.70308887    -0.24080
H2468       H  0.92831872  0.20661243  0.70213529     0.14900
H2469       H  0.83741525  0.15153859  0.64514744     0.14930
C2470       C  0.83291416  0.21074825  0.63738776    -0.24030
H2471       H  0.95197670  0.16312164  0.71586950     0.05140
H2472       H  0.94269963  0.13388144  0.66986264     0.08370
H2473       H  0.92892953  0.13163753  0.73611084     0.08370
H2474       H  0.84026208  0.22738713  0.94086285     0.08350
H2475       H  0.82168339  0.22236032  0.66922750     0.08350
H2476       H  0.81648271  0.19481025  0.61919745     0.05130
C2477       C  0.89833586  0.14139535  0.83988358    -0.20680
C2478       C  0.87133282  0.12716229  0.85324177    -0.07240
C2479       C  0.84661957  0.14464851  0.85852721     0.13630
C2480       C  0.84961740  0.17578291  0.85061358    -0.20730
C2481       C  0.87702749  0.19013412  0.84070002    -0.07250
C2482       C  0.90189709  0.17262335  0.83609597     0.13620
C2483       C  0.93263909  0.18634539  0.83058447    -0.24080
H2484       H  0.91750312  0.12812830  0.83700318     0.14900
H2485       H  0.83047094  0.18907245  0.85324742     0.14930
C2486       C  0.81735639  0.13110693  0.87483656    -0.24030
H2487       H  0.94924364  0.16918283  0.83392143     0.05140
H2488       H  0.93709042  0.20316671  0.86190133     0.08370
H2489       H  0.93580090  0.19707306  0.79220300     0.08370
H2490       H  0.81844914  0.12070987  0.91362651     0.08350
H2491       H  0.81011080  0.11368476  0.84615465     0.08350
H2492       H  0.80098283  0.14853704  0.87753258     0.05130
C2493       C  0.61185158  0.20126603  0.77309645    -0.20680
C2494       C  0.59204968  0.18269631  0.80198909    -0.07240
C2495       C  0.60268431  0.16006291  0.83383121     0.13630
C2496       C  0.63272008  0.15676349  0.83645745    -0.20730
C2497       C  0.65257898  0.17482038  0.80694536    -0.07250
C2498       C  0.64203731  0.19695640  0.77431878     0.13620
C2499       C  0.66242112  0.21427657  0.73842787    -0.24080
H2500       H  0.60353477  0.21738327  0.74619333     0.14900
H2501       H  0.64066535  0.13970224  0.86185555     0.14930
C2502       C  0.58242278  0.13842005  0.86360537    -0.24030
H2503       H  0.65033550  0.22817191  0.71114934     0.05140
H2504       H  0.67526783  0.19851492  0.71539430     0.08370
H2505       H  0.67783027  0.22891196  0.76130250     0.08370
H2506       H  0.57051915  0.12257572  0.83684264     0.08350
H2507       H  0.56639794  0.15106786  0.88615630     0.08350
H2508       H  0.59458840  0.12445413  0.89080946     0.05130
C2509       C  0.60860546  0.19381193  0.95750848    -0.20680
C2510       C  0.59600324  0.16724204  0.97826805    -0.07240
C2511       C  0.61390690  0.14348459  0.99122603     0.13630
C2512       C  0.64394637  0.14650920  0.98056633    -0.20730
C2513       C  0.65651031  0.17299605  0.95877467    -0.07250
C2514       C  0.63849832  0.19733243  0.94799136     0.13620
C2515       C  0.64987341  0.22719621  0.92597923    -0.24080
H2516       H  0.59480742  0.21225081  0.94899181     0.14900
H2517       H  0.65761250  0.12794280  0.65543814     0.14930
C2518       C  0.60176372  0.11536748  0.68416622    -0.24030
H2519       H  0.63256091  0.24372487  0.92385692     0.05140
H2520       H  0.65806012  0.22420073  0.88585265     0.08370
H2521       H  0.66749178  0.23725723  0.95108346     0.08370
H2522       H  0.58490659  0.10391294  0.65919883     0.08350
H2523       H  0.59193761  0.12119941  0.72205759     0.08350
H2524       H  0.61900051  0.09930478  0.69159504     0.05130
C2525       C  0.64790743  0.42671354  0.67613817    -0.20680
C2526       C  0.62257444  0.44234634  0.68613859    -0.07240
C2527       C  0.59610775  0.42571012  0.69692525     0.13630
C2528       C  0.59603602  0.39422390  0.69972522    -0.20730
C2529       C  0.62175536  0.37906063  0.69221625    -0.07250
C2530       C  0.64769697  0.39540937  0.67782529     0.13620
C2531       C  0.67531356  0.38002440  0.66406942    -0.24080
H2532       H  0.66825278  0.43899433  0.66660805     0.14900
H2533       H  0.57624011  0.38155737  0.71143976     0.14930
C2534       C  0.56802972  0.44068909  0.70662333    -0.24030
H2535       H  0.69228644  0.39632278  0.64860581     0.05140
H2536       H  0.67053513  0.36274743  0.63363783     0.08370
H2537       H  0.68478873  0.36936697  0.69846688     0.08370
H2538       H  0.56133468  0.45259517  0.67120098     0.08350
H2539       H  0.57078863  0.45673194  0.73956166     0.08350
H2540       H  0.55021657  0.42393373  0.71680511     0.05130
C2541       C  0.64754692  0.40525157  0.86572649    -0.20680
C2542       C  0.62014102  0.39066030  0.85675992    -0.07240
C2543       C  0.59521652  0.40799444  0.85122529     0.13630
C2544       C  0.59868478  0.43928463  0.85391091    -0.20730
C2545       C  0.62592472  0.45389477  0.86438786    -0.07250
C2546       C  0.65073589  0.43660321  0.87000556     0.13620
C2547       C  0.68050327  0.45073787  0.88175818    -0.24080
H2548       H  0.66674332  0.39208563  0.86879172     0.14900
H2549       H  0.57951006  0.45248739  0.85072374     0.14930
C2550       C  0.56462589  0.39408578  0.84424484    -0.24030
H2551       H  0.69722179  0.43360093  0.88384347     0.05140
H2552       H  0.68055232  0.46253862  0.91962327     0.08370
H2553       H  0.68675296  0.46700912  0.85072023     0.08370
H2554       H  0.55978293  0.37714718  0.87500865     0.08350
H2555       H  0.56219155  0.38349518  0.80540465     0.08350
H2556       H  0.54781614  0.41114221  0.84705107     0.05130
In2557     In  0.62295109  0.80892831  0.12291107     1.36870
C2558       C  0.62336270  0.84982109  0.05060332     0.77210
O2559       O  0.59866444  0.84692081  0.15016511    -0.61230
O2560       O  0.64096977  0.84209760  0.18207820    -0.52150
C2561       C  0.57845050  0.78140072  0.17054255     0.69880
O2562       O  0.57926509  0.78315153  0.12145006    -0.47000
C2563       C  0.67089560  0.78644788  0.08677359     0.74580
O2564       O  0.60218200  0.83026502  0.05371548    -0.58860
O2565       O  0.66874140  0.79439366  0.13384829    -0.48950
O2566       O  0.64466406  0.84555637  0.07966822    -0.55290
C2567       C  0.61936507  0.85853838  0.17642910     0.84760
O2568       O  0.60295841  0.78593249  0.19269088    -0.57190
O2569       O  0.64677194  0.78301675  0.06289821    -0.60480
In2570     In  0.62559302  0.52592208  0.29078469     1.36870
C2571       C  0.62428511  0.97501776  0.00868404     0.77210
O2572       O  0.60268081  0.99183442  0.24270120    -0.61230
O2573       O  0.64738248  0.00263497  0.22436835    -0.52150
C2574       C  0.58018459  0.55280328  0.25587503     0.69880
O2575       O  0.58155781  0.54427247  0.30261704    -0.47000
C2576       C  0.67121174  0.55129949  0.33814832     0.74580
O2577       O  0.60298432  0.99205485  0.01119085    -0.58860
O2578       O  0.66999694  0.55003362  0.28905065    -0.48950
O2579       O  0.64702452  0.98693949  0.32182244    -0.55290
C2580       C  0.62525236  0.98451870  0.21903941     0.84760
O2581       O  0.60448832  0.55497416  0.23212749    -0.57190
O2582       O  0.64690483  0.54673639  0.36117691    -0.60480
In2583     In  0.73053649  0.67079008  0.20824091     1.36870
C2584       C  0.68387010  0.67179133  0.15086832     0.77210
O2585       O  0.75358427  0.64988679  0.14119488    -0.61230
O2586       O  0.74738332  0.62487360  0.21153802    -0.52150
C2587       C  0.75953143  0.71571785  0.25382310     0.69880
O2588       O  0.75494904  0.71594200  0.20526231    -0.47000
C2589       C  0.68683561  0.67296974  0.27295814     0.74580
O2590       O  0.70292694  0.69357852  0.14988980    -0.58860
O2591       O  0.70143398  0.64950577  0.27008963    -0.48950
O2592       O  0.69200024  0.64826313  0.17196984    -0.55290
C2593       C  0.75329010  0.62451903  0.16345774     0.84760
O2594       O  0.75678636  0.68999617  0.27474383    -0.57190
O2595       O  0.69819100  0.69551953  0.25022719    -0.60480
In2596     In  0.51877753  0.67124942  0.05216722     1.36870
C2597       C  0.56545380  0.66803651  0.32830900     0.77210
O2598       O  0.99601973  0.68776601  0.31520539    -0.61230
O2599       O  0.49419915  0.71355574  0.05187783    -0.52150
C2600       C  0.99341655  0.62346634  0.09600465     0.69880
O2601       O  0.49888959  0.62423282  0.04777627    -0.47000
C2602       C  0.56173158  0.68014301  0.11763115     0.74580
O2603       O  0.54821858  0.64514673  0.33424728    -0.58860
O2604       O  0.54711582  0.70210162  0.10383430    -0.48950
O2605       O  0.55579186  0.69246057  0.34338890    -0.55290
C2606       C  0.99159631  0.71287735  0.00290060     0.84760
O2607       O  0.99441517  0.64890076  0.11846639    -0.57190
O2608       O  0.55091239  0.65472980  0.10525176    -0.60480
In2609     In  0.87504455  0.56042298  0.28936802     1.36870
C2610       C  0.87270604  0.59776819  0.21198998     0.77170
O2611       O  0.85496738  0.60142104  0.31714000    -0.61230
O2612       O  0.89923789  0.59627286  0.33725255    -0.52150
C2613       C  0.82987711  0.53563268  0.33991719     0.69880
O2614       O  0.83126174  0.53479488  0.29083635    -0.47000
C2615       C  0.92129994  0.53409076  0.25591875     0.74580
O2616       O  0.85085537  0.58011035  0.22237536    -0.58860
O2617       O  0.91944639  0.54291880  0.30257545    -0.48950
O2618       O  0.89599766  0.59169684  0.23418327    -0.55290
C2619       C  0.87839806  0.61375456  0.00056872     0.84760
O2620       O  0.85397039  0.54223684  0.36229378    -0.57190
O2621       O  0.89715703  0.53115835  0.23205240    -0.60480
In2622     In  0.87827172  0.77513420  0.11643985     1.36870
C2623       C  0.88130251  0.73898757  0.03651706     0.77210
O2624       O  0.90014636  0.73463910  0.13918679    -0.61230
O2625       O  0.85707762  0.73925870  0.16768310    -0.52150
C2626       C  0.92201469  0.80024800  0.17029784     0.69880
O2627       O  0.92153449  0.80175157  0.12121601    -0.47000
C2628       C  0.83059299  0.80040351  0.08590577     0.74580
O2629       O  0.90255757  0.75744859  0.04693925    -0.58860
O2630       O  0.83255631  0.78874833  0.13037292    -0.48950
O2631       O  0.85828912  0.74289983  0.06156571    -0.55290
C2632       C  0.87840175  0.72248300  0.16195267     0.84760
O2633       O  0.89763774  0.79285651  0.19108961    -0.57190
O2634       O  0.85483344  0.80581887  0.06298657    -0.60480
In2635     In  0.76978378  0.91902366  0.21184549     1.36870
C2636       C  0.81568542  0.92487709  0.27194860     0.77210
O2637       O  0.74691918  0.89960502  0.28175638    -0.61230
O2638       O  0.74472163  0.87435073  0.21093633    -0.52150
C2639       C  0.74498311  0.96377085  0.16702431     0.69880
O2640       O  0.75060176  0.96406072  0.21516457    -0.47000
C2641       C  0.81359961  0.91198890  0.14950811     0.74580
O2642       O  0.80155836  0.94767224  0.26092260    -0.58860
O2643       O  0.79598344  0.88989849  0.15938717    -0.48950
O2644       O  0.80350436  0.90010141  0.25929078    -0.55290
C2645       C  0.74244223  0.87419586  0.25998205     0.84760
O2646       O  0.74555818  0.93823472  0.14522885    -0.57190
O2647       O  0.80505999  0.93721911  0.16275943    -0.60480
In2648     In  0.98223100  0.91719735  0.04398839     1.36870
C2649       C  0.93765004  0.91734234  0.31409625     0.77210
O2650       O  0.50764119  0.89793905  0.31160177    -0.61230
O2651       O  0.00335745  0.87294933  0.04880386    -0.52150
C2652       C  0.50811371  0.96377091  0.09162861     0.69880
O2653       O  0.00380492  0.96370538  0.04299111    -0.47000
C2654       C  0.93610134  0.91638920  0.10384453     0.74580
O2655       O  0.95602823  0.93968647  0.31602432    -0.58860
O2656       O  0.95080870  0.89306842  0.09979184    -0.48950
O2657       O  0.94565540  0.89399646  0.33601373    -0.55290
C2658       C  0.50893576  0.87272691  0.00055675     0.84760
O2659       O  0.50586969  0.93805638  0.11271063    -0.57190
O2660       O  0.94844554  0.93983998  0.08583461    -0.60480
In2661     In  0.00089925  0.54326262  0.17650681     1.36870
C2662       C  0.00962515  0.99201051  0.12242410     0.77210
O2663       O  0.54976413  0.55706024  0.18013853    -0.61230
O2664       O  0.52802703  0.54571856  0.25003745    -0.52150
C2665       C  0.49199483  0.59488263  0.12510562     0.69880
O2666       O  0.49324789  0.56972365  0.10309887    -0.47000
C2667       C  0.94975642  0.53348974  0.22850008     0.74580
O2668       O  0.00908597  0.51752332  0.10183317    -0.58860
O2669       O  0.97365735  0.54063042  0.25034604    -0.48950
O2670       O  0.00727481  0.99264796  0.17117303    -0.55290
C2671       C  0.55189821  0.55337930  0.22839680     0.84760
O2672       O  0.49373828  0.59365862  0.17382374    -0.57190
O2673       O  0.95199984  0.52994965  0.18012368    -0.60480
In2674     In  0.00019284  0.79198979  0.25145678     1.36870
C2675       C  0.49007417  0.74062033  0.30530930     0.77210
O2676       O  0.52578928  0.77946261  0.17880505    -0.61230
O2677       O  0.54953243  0.78706389  0.24790770    -0.52150
C2678       C  0.94964511  0.80102234  0.20025686     0.69880
O2679       O  0.95056155  0.79354932  0.24726336    -0.47000
C2680       C  0.01035912  0.84426506  0.30422829     0.74580
O2681       O  0.99317625  0.74104790  0.25666599    -0.58860
O2682       O  0.00878162  0.84298313  0.25543728    -0.48950
O2683       O  0.49022624  0.76633787  0.32582817    -0.55290
C2684       C  0.55055293  0.78113181  0.20009818     0.84760
O2685       O  0.97452615  0.80512440  0.17975897    -0.57190
O2686       O  0.00865158  0.81889387  0.32563177    -0.60480
In2687     In  0.75002836  0.54341000  0.08355220     1.36870
C2688       C  0.74282407  0.99184710  0.13740574     0.77210
O2689       O  0.70061533  0.54592471  0.08088200    -0.61230
O2690       O  0.72388810  0.55421155  0.01125437    -0.52150
C2691       C  0.75580792  0.59600735  0.13488784     0.69880
O2692       O  0.75244143  0.57093004  0.15700834    -0.47000
C2693       C  0.80163380  0.53491927  0.03496177     0.74580
O2694       O  0.74680444  0.51729268  0.15835755    -0.58860
O2695       O  0.77719573  0.53055510  0.01308406    -0.48950
O2696       O  0.74081147  0.99263087  0.08863866    -0.55290
C2697       C  0.69926879  0.55183980  0.03325641     0.84760
O2698       O  0.75806046  0.59436430  0.08618316    -0.57190
O2699       O  0.79972890  0.54261843  0.08188121    -0.60480
In2700     In  0.75083367  0.79423922  0.00750339     1.36870
C2701       C  0.74137791  0.84586394  0.28989796     0.77210
O2702       O  0.77849928  0.79199449  0.08004028    -0.61230
O2703       O  0.79936399  0.80921854  0.01261226    -0.52150
C2704       C  0.69951172  0.78589211  0.05971993     0.69880
O2705       O  0.70211342  0.78004559  0.01210002    -0.47000
C2706       C  0.76067555  0.74370945  0.28536107     0.74580
O2707       O  0.74696858  0.84504489  0.33771995    -0.58860
O2708       O  0.75624004  0.74370318  0.33366267    -0.48950
O2709       O  0.73923018  0.82033202  0.26868568    -0.55290
C2710       C  0.80202612  0.80192458  0.05949656     0.84760
O2711       O  0.72316735  0.79472504  0.08092344    -0.57190
O2712       O  0.76153181  0.76957749  0.26575275    -0.60480
C2713       C  0.88635476  0.90012604  0.32526884    -0.20680
C2714       C  0.90675679  0.91930203  0.29894680    -0.07240
C2715       C  0.89667033  0.94164075  0.26598870     0.13630
C2716       C  0.86640960  0.94520320  0.26209464    -0.20730
C2717       C  0.84619573  0.92603884  0.28890392    -0.07250
C2718       C  0.85634213  0.90294634  0.32024806     0.13620
C2719       C  0.83565041  0.88079785  0.01462829    -0.24080
H2720       H  0.89385365  0.88287591  0.01744042     0.14900
H2721       H  0.85846443  0.96164564  0.23541073     0.14930
C2722       C  0.91758544  0.96029190  0.23280297    -0.24030
H2723       H  0.84735142  0.86665241  0.04221833     0.05140
H2724       H  0.82445671  0.86532635  0.98637425     0.08370
H2725       H  0.81906201  0.89298736  0.03666144     0.08370
H2726       H  0.93101909  0.94535962  0.20907037     0.08350
H2727       H  0.93223426  0.97467763  0.25763559     0.08350
H2728       H  0.90587610  0.97490486  0.20603285     0.05130
C2729       C  0.85696613  0.93577205  0.11015919    -0.20680
C2730       C  0.84392454  0.90978728  0.13221206    -0.07240
C2731       C  0.86159035  0.88639698  0.14812914     0.13630
C2732       C  0.89189954  0.88936340  0.13977172    -0.20730
C2733       C  0.90499122  0.91580729  0.11872689    -0.07250
C2734       C  0.88710718  0.93966332  0.10445221     0.13620
C2735       C  0.89884380  0.96944592  0.08253909    -0.24080
H2736       H  0.84333240  0.95386562  0.09893286     0.14900
H2737       H  0.90546798  0.87112162  0.15036261     0.14930
C2738       C  0.84899886  0.85906677  0.17607363    -0.24030
H2739       H  0.88129476  0.98534684  0.07616719     0.05140
H2740       H  0.90934218  0.96605225  0.04431524     0.08370
H2741       H  0.91469734  0.98054140  0.10995758     0.08370
H2742       H  0.83162992  0.84771473  0.15219494     0.08350
H2743       H  0.83962915  0.86578178  0.21378309     0.08350
H2744       H  0.86586564  0.84268916  0.18405343     0.05130
C2745       C  0.90886905  0.69439751  0.02114254    -0.20680
C2746       C  0.88416069  0.71035249  0.00927828    -0.07240
C2747       C  0.85886177  0.69460770  0.99038680     0.13630
C2748       C  0.85754334  0.66324306  0.99062174    -0.20730
C2749       C  0.88133559  0.64688032  0.00671285    -0.07250
C2750       C  0.90772342  0.66278279  0.02047436     0.13620
C2751       C  0.93432544  0.64686943  0.03642230    -0.24080
H2752       H  0.92831864  0.70661239  0.03546875     0.14900
H2753       H  0.83741516  0.65153857  0.97848088     0.14930
C2754       C  0.83291408  0.71074823  0.97072122    -0.24030
H2755       H  0.95197661  0.66312160  0.04920295     0.05140
H2756       H  0.94269955  0.63388142  0.00319606     0.08370
H2757       H  0.92892945  0.63163748  0.06944425     0.08370
H2758       H  0.84026203  0.72738717  0.27419607     0.08350
H2759       H  0.82168330  0.72236029  0.00256096     0.08350
H2760       H  0.81648263  0.69481023  0.95253089     0.05130
C2761       C  0.89833578  0.64139532  0.17321691    -0.20680
C2762       C  0.87133273  0.62716226  0.18657506    -0.07240
C2763       C  0.84661948  0.64464848  0.19186048     0.13630
C2764       C  0.84961732  0.67578289  0.18394688    -0.20730
C2765       C  0.87702742  0.69013410  0.17403338    -0.07250
C2766       C  0.90189702  0.67262332  0.16942935     0.13620
C2767       C  0.93263902  0.68634537  0.16391791    -0.24080
H2768       H  0.91750304  0.62812828  0.17033652     0.14900
H2769       H  0.83047086  0.68907243  0.18658070     0.14930
C2770       C  0.81735629  0.63110691  0.20816977    -0.24030
H2771       H  0.94924357  0.66918280  0.16725487     0.05140
H2772       H  0.93709034  0.70316667  0.19523479     0.08370
H2773       H  0.93580085  0.69707305  0.12553645     0.08370
H2774       H  0.81844902  0.62070984  0.24695972     0.08350
H2775       H  0.81011072  0.61368473  0.17948784     0.08350
H2776       H  0.80098273  0.64853701  0.21086576     0.05130
C2777       C  0.61185148  0.70126620  0.10642973    -0.20680
C2778       C  0.59204956  0.68269656  0.13532246    -0.07240
C2779       C  0.60268415  0.66006322  0.16716477     0.13630
C2780       C  0.63271991  0.65676377  0.16979107    -0.20730
C2781       C  0.65257884  0.67482056  0.14027886    -0.07250
C2782       C  0.64203721  0.69695654  0.10765213     0.13620
C2783       C  0.66242106  0.71427660  0.07176113    -0.24080
H2784       H  0.60353470  0.71738338  0.07952648     0.14900
H2785       H  0.64066515  0.63970257  0.19518928     0.14930
C2786       C  0.58242258  0.63842048  0.19693908    -0.24030
H2787       H  0.65033547  0.72817192  0.04448255     0.05140
H2788       H  0.67526772  0.69851487  0.04872764     0.08370
H2789       H  0.67783024  0.72891198  0.09463569     0.08370
H2790       H  0.57051889  0.62257612  0.17017647     0.08350
H2791       H  0.56639779  0.65106838  0.21948996     0.08350
H2792       H  0.59458818  0.62445457  0.22414322     0.05130
C2793       C  0.60860548  0.69381192  0.29084237    -0.20680
C2794       C  0.59600327  0.66724202  0.31160193    -0.07240
C2795       C  0.61390693  0.64348456  0.32455985     0.13630
C2796       C  0.64394640  0.64650916  0.31390006    -0.20730
C2797       C  0.65651031  0.67299601  0.29210837    -0.07250
C2798       C  0.63849833  0.69733240  0.28132515     0.13620
C2799       C  0.64987341  0.72719619  0.25931303    -0.24080
H2800       H  0.59480744  0.71225081  0.28232575     0.14900
H2801       H  0.65761243  0.62794279  0.98877151     0.14930
C2802       C  0.60176365  0.61536748  0.01749953    -0.24030
H2803       H  0.63256092  0.74372486  0.25719080     0.05140
H2804       H  0.65806007  0.72420073  0.21918641     0.08370
H2805       H  0.66749181  0.73725719  0.28441721     0.08370
H2806       H  0.58490653  0.60391293  0.99253214     0.08350
H2807       H  0.59193753  0.62119942  0.05539089     0.08350
H2808       H  0.61900043  0.59930477  0.02492838     0.05130
C2809       C  0.64790745  0.92671352  0.00947152    -0.20680
C2810       C  0.62257446  0.94234635  0.01947188    -0.07240
C2811       C  0.59610776  0.92571014  0.03025853     0.13630
C2812       C  0.59603602  0.89422391  0.03305856    -0.20730
C2813       C  0.62175537  0.87906063  0.02554965    -0.07250
C2814       C  0.64769698  0.89540936  0.01115870     0.13620
C2815       C  0.67531357  0.88002437  0.99740288    -0.24080
H2816       H  0.66825281  0.93899430  0.99994139     0.14900
H2817       H  0.57624011  0.88155740  0.04477309     0.14930
C2818       C  0.56802973  0.94068911  0.03995652    -0.24030
H2819       H  0.69228646  0.89632274  0.98193926     0.05140
H2820       H  0.67053515  0.86274739  0.96697132     0.08370
H2821       H  0.68478873  0.86936697  0.03180037     0.08370
H2822       H  0.56133472  0.95259519  0.00453414     0.08350
H2823       H  0.57078863  0.95673199  0.07289484     0.08350
H2824       H  0.55021657  0.92393377  0.05013828     0.05130
C2825       C  0.64754692  0.90525160  0.19905989    -0.20680
C2826       C  0.62014102  0.89066034  0.19009332    -0.07240
C2827       C  0.59521653  0.90799449  0.18455865     0.13630
C2828       C  0.59868480  0.93928468  0.18724425    -0.20730
C2829       C  0.62592475  0.95389481  0.19772122    -0.07250
C2830       C  0.65073591  0.93660324  0.20333895     0.13620
C2831       C  0.68050329  0.95073788  0.21509158    -0.24080
H2832       H  0.66674332  0.89208564  0.20212515     0.14900
H2833       H  0.57951009  0.95248745  0.18405706     0.14930
C2834       C  0.56462589  0.89408584  0.17757818    -0.24030
H2835       H  0.69722181  0.93360094  0.21717687     0.05140
H2836       H  0.68055234  0.96253863  0.25295667     0.08370
H2837       H  0.68675299  0.96700913  0.18405363     0.08370
H2838       H  0.55978291  0.87714726  0.20834200     0.08350
H2839       H  0.56219156  0.88349524  0.13873800     0.08350
H2840       H  0.54781616  0.91114229  0.18038437     0.05130
In2841     In  0.62295105  0.80892835  0.45624415     1.36870
C2842       C  0.62336269  0.84982119  0.38393651     0.77210
O2843       O  0.59866441  0.84692084  0.48349829    -0.61230
O2844       O  0.64096975  0.84209759  0.51541136    -0.52150
C2845       C  0.57845044  0.78140077  0.50387556     0.69880
O2846       O  0.57926503  0.78315161  0.45478307    -0.47000
C2847       C  0.67089554  0.78644790  0.42010663     0.74580
O2848       O  0.60218198  0.83026512  0.38704861    -0.58860
O2849       O  0.66874134  0.79439364  0.46718135    -0.48950
O2850       O  0.64466405  0.84555644  0.41300142    -0.55290
C2851       C  0.61936505  0.85853838  0.50976231     0.84760
O2852       O  0.60295835  0.78593250  0.52602390    -0.57190
O2853       O  0.64677189  0.78301684  0.39623122    -0.60480
In2854     In  0.62559301  0.52592206  0.62411817     1.36870
C2855       C  0.62428511  0.97501787  0.34201734     0.77210
O2856       O  0.60268080  0.99183439  0.57603466    -0.61230
O2857       O  0.64738247  0.00263494  0.55770179    -0.52150
C2858       C  0.58018455  0.55280321  0.58920855     0.69880
O2859       O  0.58155779  0.54427240  0.63595056    -0.47000
C2860       C  0.67121174  0.55129949  0.67148177     0.74580
O2861       O  0.60298432  0.99205496  0.34452412    -0.58860
O2862       O  0.66999693  0.55003362  0.62238411    -0.48950
O2863       O  0.64702452  0.98693944  0.65515588    -0.55290
C2864       C  0.62525235  0.98451867  0.55237285     0.84760
O2865       O  0.60448828  0.55497413  0.56546100    -0.57190
O2866       O  0.64690483  0.54673638  0.69451037    -0.60480
In2867     In  0.73053658  0.67079013  0.54157419     1.36870
C2868       C  0.68387020  0.67179121  0.48420154     0.77210
O2869       O  0.75358440  0.64988684  0.47452823    -0.61230
O2870       O  0.74738340  0.62487366  0.54487138    -0.52150
C2871       C  0.75953149  0.71571789  0.58715645     0.69880
O2872       O  0.75494913  0.71594206  0.53859565    -0.47000
C2873       C  0.68683563  0.67296987  0.60629122     0.74580
O2874       O  0.70292699  0.69357845  0.48322299    -0.58860
O2875       O  0.70143403  0.64950591  0.60342292    -0.48950
O2876       O  0.69200041  0.64826304  0.50530311    -0.55290
C2877       C  0.75329019  0.62451908  0.49679110     0.84760
O2878       O  0.75678641  0.68999621  0.60807717    -0.57190
O2879       O  0.69819103  0.69551964  0.58356021    -0.60480
In2880     In  0.51877753  0.67124930  0.38550089     1.36870
C2881       C  0.56545377  0.66803662  0.66164173     0.77210
O2882       O  0.99601970  0.68776606  0.64853845    -0.61230
O2883       O  0.49419919  0.71355566  0.38521150    -0.52150
C2884       C  0.99341655  0.62346637  0.42933790     0.69880
O2885       O  0.49888957  0.62423273  0.38110985    -0.47000
C2886       C  0.56173159  0.68014276  0.45096484     0.74580
O2887       O  0.54821856  0.64514685  0.66758009    -0.58860
O2888       O  0.54711588  0.70210142  0.43716801    -0.48950
O2889       O  0.55579185  0.69246069  0.67672161    -0.55290
C2890       C  0.99159632  0.71287738  0.33623388     0.84760
O2891       O  0.99441524  0.64890079  0.45179963    -0.57190
O2892       O  0.55091231  0.65472958  0.43858550    -0.60480
In2893     In  0.87504457  0.56042301  0.62270139     1.36870
C2894       C  0.87270608  0.59776826  0.54532339     0.77170
O2895       O  0.85496740  0.60142106  0.65047340    -0.61230
O2896       O  0.89923791  0.59627287  0.67058596    -0.52150
C2897       C  0.82987712  0.53563271  0.67325054     0.69880
O2898       O  0.83126174  0.53479494  0.62416971    -0.47000
C2899       C  0.92129994  0.53409079  0.58925205     0.74580
O2900       O  0.85085542  0.58011040  0.55570871    -0.58860
O2901       O  0.91944640  0.54291881  0.63590876    -0.48950
O2902       O  0.89599770  0.59169692  0.56751672    -0.55290
C2903       C  0.87839805  0.61375459  0.33390194     0.84760
O2904       O  0.85397041  0.54223685  0.69562713    -0.57190
O2905       O  0.89715702  0.53115840  0.56538572    -0.60480
In2906     In  0.87827169  0.77513423  0.44977299     1.36870
C2907       C  0.88130249  0.73898759  0.36985021     0.77210
O2908       O  0.90014635  0.73463914  0.47251993    -0.61230
O2909       O  0.85707761  0.73925874  0.50101628    -0.52150
C2910       C  0.92201465  0.80024806  0.50363095     0.69880
O2911       O  0.92153444  0.80175162  0.45454912    -0.47000
C2912       C  0.83059295  0.80040351  0.41923889     0.74580
O2913       O  0.90255754  0.75744863  0.38027238    -0.58860
O2914       O  0.83255627  0.78874834  0.46370604    -0.48950
O2915       O  0.85828911  0.74289984  0.39489887    -0.55290
C2916       C  0.87840175  0.72248304  0.49528586     0.84760
O2917       O  0.89763770  0.79285657  0.52442272    -0.57190
O2918       O  0.85483340  0.80581889  0.39631969    -0.60480
In2919     In  0.76978376  0.91902368  0.54517881     1.36870
C2920       C  0.81568541  0.92487712  0.60528188     0.77210
O2921       O  0.74691920  0.89960505  0.61508974    -0.61230
O2922       O  0.74472162  0.87435074  0.54426970    -0.52150
C2923       C  0.74498308  0.96377088  0.50035763     0.69880
O2924       O  0.75060174  0.96406074  0.54849789    -0.47000
C2925       C  0.81359957  0.91198893  0.48284139     0.74580
O2926       O  0.80155833  0.94767227  0.59425591    -0.58860
O2927       O  0.79598340  0.88989852  0.49272044    -0.48950
O2928       O  0.80350436  0.90010144  0.59262404    -0.55290
C2929       C  0.74244224  0.87419588  0.59331542     0.84760
O2930       O  0.74555814  0.93823475  0.47856217    -0.57190
O2931       O  0.80505996  0.93721913  0.49609273    -0.60480
In2932     In  0.98223098  0.91719738  0.37732174     1.36870
C2933       C  0.93765003  0.91734235  0.64742953     0.77210
O2934       O  0.50764116  0.89793914  0.64493490    -0.61230
O2935       O  0.00335743  0.87294937  0.38213719    -0.52150
C2936       C  0.50811368  0.96377089  0.42496206     0.69880
O2937       O  0.00380489  0.96370541  0.37632446    -0.47000
C2938       C  0.93610131  0.91638922  0.43717786     0.74580
O2939       O  0.95602822  0.93968648  0.64935762    -0.58860
O2940       O  0.95080867  0.89306845  0.43312516    -0.48950
O2941       O  0.94565538  0.89399647  0.66934699    -0.55290
C2942       C  0.50893573  0.87272686  0.33389031     0.84760
O2943       O  0.50586964  0.93805636  0.44604409    -0.57190
O2944       O  0.94844552  0.93984001  0.41916797    -0.60480
In2945     In  0.00089923  0.54326265  0.50984007     1.36870
C2946       C  0.00962514  0.99201054  0.45575746     0.77210
O2947       O  0.54976406  0.55706022  0.51347210    -0.61230
O2948       O  0.52802700  0.54571838  0.58337099    -0.52150
C2949       C  0.49199477  0.59488252  0.45843918     0.69880
O2950       O  0.49324784  0.56972355  0.43643243    -0.47000
C2951       C  0.94975641  0.53348977  0.56183336     0.74580
O2952       O  0.00908597  0.51752335  0.43516643    -0.58860
O2953       O  0.97365735  0.54063042  0.58367931    -0.48950
O2954       O  0.00727480  0.99264798  0.50450639    -0.55290
C2955       C  0.55189816  0.55337921  0.56173036     0.84760
O2956       O  0.49373821  0.59365852  0.50715731    -0.57190
O2957       O  0.95199982  0.52994971  0.51345695    -0.60480
In2958     In  0.00019279  0.79198984  0.58478986     1.36870
C2959       C  0.49007413  0.74062044  0.63864230     0.77210
O2960       O  0.52578922  0.77946274  0.51213805    -0.61230
O2961       O  0.54953237  0.78706395  0.58124071    -0.52150
C2962       C  0.94964507  0.80102240  0.53358996     0.69880
O2963       O  0.95056151  0.79354936  0.58059646    -0.47000
C2964       C  0.01035910  0.84426508  0.63756142     0.74580
O2965       O  0.99317621  0.74104794  0.58999904    -0.58860
O2966       O  0.00878157  0.84298317  0.58877041    -0.48950
O2967       O  0.49022620  0.76633798  0.65916119    -0.55290
C2968       C  0.55055287  0.78113189  0.53343119     0.84760
O2969       O  0.97452610  0.80512447  0.51309206    -0.57190
O2970       O  0.00865158  0.81889388  0.65896487    -0.60480
In2971     In  0.75002834  0.54341004  0.41688559     1.36870
C2972       C  0.74282405  0.99184712  0.47073906     0.77210
O2973       O  0.70061531  0.54592475  0.41421543    -0.61230
O2974       O  0.72388806  0.55421159  0.34458778    -0.52150
C2975       C  0.75580798  0.59600739  0.46822121     0.69880
O2976       O  0.75244145  0.57093009  0.49034173    -0.47000
C2977       C  0.80163377  0.53491929  0.36829516     0.74580
O2978       O  0.74680440  0.51729272  0.49169094    -0.58860
O2979       O  0.77719570  0.53055514  0.34641744    -0.48950
O2980       O  0.74081142  0.99263090  0.42197198    -0.55290
C2981       C  0.69926876  0.55183983  0.36658984     0.84760
O2982       O  0.75806050  0.59436433  0.41951652    -0.57190
O2983       O  0.79972888  0.54261844  0.41521460    -0.60480
In2984     In  0.75083363  0.79423920  0.34083651     1.36870
C2985       C  0.74137794  0.84586396  0.62323134     0.77210
O2986       O  0.77849924  0.79199450  0.41337341    -0.61230
O2987       O  0.79936395  0.80921852  0.34594537    -0.52150
C2988       C  0.69951166  0.78589211  0.39305300     0.69880
O2989       O  0.70211337  0.78004564  0.34543307    -0.47000
C2990       C  0.76067561  0.74370948  0.61869444     0.74580
O2991       O  0.74696864  0.84504492  0.67105333    -0.58860
O2992       O  0.75624010  0.74370321  0.66699604    -0.48950
O2993       O  0.73923022  0.82033204  0.60201908    -0.55290
C2994       C  0.80202608  0.80192458  0.39282968     0.84760
O2995       O  0.72316730  0.79472497  0.41425655    -0.57190
O2996       O  0.76153189  0.76957753  0.59908614    -0.60480
C2997       C  0.88635474  0.90012607  0.65860216    -0.20680
C2998       C  0.90675677  0.91930206  0.63228010    -0.07240
C2999       C  0.89667032  0.94164077  0.59932199     0.13630
C3000       C  0.86640958  0.94520323  0.59542793    -0.20730
C3001       C  0.84619571  0.92603888  0.62223722    -0.07250
C3002       C  0.85634211  0.90294638  0.65358138     0.13620
C3003       C  0.83565038  0.88079784  0.34796158    -0.24080
H3004       H  0.89385362  0.88287592  0.35077374     0.14900
H3005       H  0.85846442  0.96164567  0.56874401     0.14930
C3006       C  0.91758543  0.96029192  0.56613626    -0.24030
H3007       H  0.84735139  0.86665241  0.37555161     0.05140
H3008       H  0.82445669  0.86532634  0.31970753     0.08370
H3009       H  0.81906198  0.89298734  0.36999472     0.08370
H3010       H  0.93101908  0.94535963  0.54240366     0.08350
H3011       H  0.93223425  0.97467764  0.59096887     0.08350
H3012       H  0.90587610  0.97490488  0.53936613     0.05130
C3013       C  0.85696609  0.93577207  0.44349247    -0.20680
C3014       C  0.84392450  0.90978730  0.46554533    -0.07240
C3015       C  0.86159031  0.88639700  0.48146239     0.13630
C3016       C  0.89189950  0.88936341  0.47310500    -0.20730
C3017       C  0.90499118  0.91580731  0.45206019    -0.07250
C3018       C  0.88710715  0.93966335  0.43778551     0.13620
C3019       C  0.89884377  0.96944594  0.41587240    -0.24080
H3020       H  0.84333237  0.95386565  0.43226615     0.14900
H3021       H  0.90546793  0.87112164  0.48369589     0.14930
C3022       C  0.84899880  0.85906678  0.50940684    -0.24030
H3023       H  0.88129473  0.98534686  0.40950049     0.05140
H3024       H  0.90934216  0.96605228  0.37764856     0.08370
H3025       H  0.91469731  0.98054143  0.44329091     0.08370
H3026       H  0.83162988  0.84771474  0.48552811     0.08350
H3027       H  0.83962909  0.86578176  0.54711630     0.08350
H3028       H  0.86586558  0.84268915  0.51738663     0.05130
C3029       C  0.90886905  0.69439755  0.35447571    -0.20680
C3030       C  0.88416069  0.71035252  0.34261141    -0.07240
C3031       C  0.85886178  0.69460774  0.32371990     0.13630
C3032       C  0.85754334  0.66324309  0.32395485    -0.20730
C3033       C  0.88133559  0.64688036  0.34004602    -0.07250
C3034       C  0.90772341  0.66278282  0.35380755     0.13620
C3035       C  0.93432542  0.64686947  0.36975556    -0.24080
H3036       H  0.92831863  0.70661243  0.36880194     0.14900
H3037       H  0.83741517  0.65153860  0.31181396     0.14930
C3038       C  0.83291409  0.71074827  0.30405431    -0.24030
H3039       H  0.95197659  0.66312163  0.38253622     0.05140
H3040       H  0.94269954  0.63388144  0.33652935     0.08370
H3041       H  0.92892941  0.63163753  0.40277752     0.08370
H3042       H  0.84026206  0.72738718  0.60752947     0.08350
H3043       H  0.82168331  0.72236032  0.33589405     0.08350
H3044       H  0.81648264  0.69481027  0.28586398     0.05130
C3045       C  0.89833581  0.64139538  0.50655028    -0.20680
C3046       C  0.87133277  0.62716232  0.51990846    -0.07240
C3047       C  0.84661952  0.64464854  0.52519388     0.13630
C3048       C  0.84961735  0.67578294  0.51728022    -0.20730
C3049       C  0.87702744  0.69013415  0.50736665    -0.07250
C3050       C  0.90189704  0.67262338  0.50276263     0.13620
C3051       C  0.93263903  0.68634543  0.49725111    -0.24080
H3052       H  0.91750308  0.62812834  0.50366990     0.14900
H3053       H  0.83047089  0.68907248  0.51991404     0.14930
C3054       C  0.81735634  0.63110696  0.54150322    -0.24030
H3055       H  0.94924360  0.66918287  0.50058807     0.05140
H3056       H  0.93709037  0.70316676  0.52856796     0.08370
H3057       H  0.93580084  0.69707309  0.45886963     0.08370
H3058       H  0.81844909  0.62070991  0.58029318     0.08350
H3059       H  0.81011076  0.61368478  0.51282131     0.08350
H3060       H  0.80098278  0.64853707  0.54419923     0.05130
C3061       C  0.61185147  0.70126600  0.43976337    -0.20680
C3062       C  0.59204961  0.68269623  0.46865598    -0.07240
C3063       C  0.60268427  0.66006280  0.50049799     0.13630
C3064       C  0.63272004  0.65676340  0.50312416    -0.20730
C3065       C  0.65257892  0.67482034  0.47361210    -0.07250
C3066       C  0.64203721  0.69695639  0.44098563     0.13620
C3067       C  0.66242099  0.71427664  0.40509477    -0.24080
H3068       H  0.60353464  0.71738327  0.41286034     0.14900
H3069       H  0.64066534  0.63970213  0.52852219     0.14930
C3070       C  0.58242277  0.63841989  0.53027211    -0.24030
H3071       H  0.65033534  0.72817197  0.37781629     0.05140
H3072       H  0.67526772  0.69851504  0.38206114     0.08370
H3073       H  0.67783011  0.72891203  0.42796945     0.08370
H3074       H  0.57051917  0.62257555  0.50350935     0.08350
H3075       H  0.56639791  0.65106765  0.55282307     0.08350
H3076       H  0.59458842  0.62445398  0.55747618     0.05130
C3077       C  0.60860545  0.69381200  0.62417504    -0.20680
C3078       C  0.59600324  0.66724211  0.64493463    -0.07240
C3079       C  0.61390690  0.64348467  0.65789265     0.13630
C3080       C  0.64394637  0.64650929  0.64723297    -0.20730
C3081       C  0.65651030  0.67299613  0.62544128    -0.07250
C3082       C  0.63849831  0.69733250  0.61465792     0.13620
C3083       C  0.64987340  0.72719627  0.59264577    -0.24080
H3084       H  0.59480741  0.71225087  0.61565833     0.14900
H3085       H  0.65761247  0.62794270  0.32210511     0.14930
C3086       C  0.60176369  0.61536740  0.35083326    -0.24030
H3087       H  0.63256090  0.74372493  0.59052343     0.05140
H3088       H  0.65806012  0.72420078  0.55251920     0.08370
H3089       H  0.66749176  0.73725730  0.61775000     0.08370
H3090       H  0.58490657  0.60391285  0.32586588     0.08350
H3091       H  0.59193758  0.62119934  0.38872462     0.08350
H3092       H  0.61900048  0.59930470  0.35826209     0.05130
C3093       C  0.64790746  0.92671365  0.34280487    -0.20680
C3094       C  0.62257446  0.94234646  0.35280519    -0.07240
C3095       C  0.59610776  0.92571025  0.36359179     0.13630
C3096       C  0.59603602  0.89422402  0.36639181    -0.20730
C3097       C  0.62175537  0.87906075  0.35888291    -0.07250
C3098       C  0.64769699  0.89540949  0.34449202     0.13620
C3099       C  0.67531359  0.88002450  0.33073623    -0.24080
H3100       H  0.66825282  0.93899443  0.33327479     0.14900
H3101       H  0.57624010  0.88155750  0.37810630     0.14930
C3102       C  0.56802972  0.94068922  0.37328975    -0.24030
H3103       H  0.69228649  0.89632288  0.31527264     0.05140
H3104       H  0.67053518  0.86274753  0.30030465     0.08370
H3105       H  0.68478873  0.86936709  0.36513372     0.08370
H3106       H  0.56133472  0.95259530  0.33786737     0.08350
H3107       H  0.57078860  0.95673209  0.40622808     0.08350
H3108       H  0.55021656  0.92393387  0.38347148     0.05130
C3109       C  0.64754690  0.90525158  0.53239320    -0.20680
C3110       C  0.62014099  0.89066033  0.52342661    -0.07240
C3111       C  0.59521651  0.90799448  0.51789199     0.13630
C3112       C  0.59868478  0.93928467  0.52057766    -0.20730
C3113       C  0.62592473  0.95389479  0.53105463    -0.07250
C3114       C  0.65073589  0.93660322  0.53667231     0.13620
C3115       C  0.68050327  0.95073785  0.54842494    -0.24080
H3116       H  0.66674330  0.89208562  0.53545842     0.14900
H3117       H  0.57951007  0.95248744  0.51739050     0.14930
C3118       C  0.56462587  0.89408584  0.51091152    -0.24030
H3119       H  0.69722179  0.93360091  0.55051020     0.05140
H3120       H  0.68055233  0.96253859  0.58629005     0.08370
H3121       H  0.68675296  0.96700912  0.51738701     0.08370
H3122       H  0.55978290  0.87714723  0.54167529     0.08350
H3123       H  0.56219152  0.88349527  0.47207130     0.08350
H3124       H  0.54781613  0.91114228  0.51371778     0.05130
In3125     In  0.62295109  0.80892830  0.78957751     1.36870
C3126       C  0.62336271  0.84982112  0.71726982     0.77210
O3127       O  0.59866445  0.84692080  0.81683160    -0.61230
O3128       O  0.64096978  0.84209757  0.84874469    -0.52150
C3129       C  0.57845048  0.78140073  0.83720894     0.69880
O3130       O  0.57926508  0.78315155  0.78811645    -0.47000
C3131       C  0.67089560  0.78644788  0.75344005     0.74580
O3132       O  0.60218201  0.83026505  0.72038194    -0.58860
O3133       O  0.66874140  0.79439365  0.80051475    -0.48950
O3134       O  0.64466407  0.84555638  0.74633471    -0.55290
C3135       C  0.61936508  0.85853835  0.84309561     0.84760
O3136       O  0.60295839  0.78593248  0.85935728    -0.57190
O3137       O  0.64677195  0.78301676  0.72956465    -0.60480
In3138     In  0.62559304  0.52592207  0.95745127     1.36870
C3139       C  0.62428511  0.97501781  0.67535076     0.77210
O3140       O  0.60268081  0.99183436  0.90936792    -0.61230
O3141       O  0.64738249  0.00263491  0.89103508    -0.52150
C3142       C  0.58018461  0.55280328  0.92254160     0.69880
O3143       O  0.58155784  0.54427248  0.96928362    -0.47000
C3144       C  0.67121177  0.55129947  0.00481488     0.74580
O3145       O  0.60298431  0.99205490  0.67785755    -0.58860
O3146       O  0.66999698  0.55003359  0.95571722    -0.48950
O3147       O  0.64702452  0.98693938  0.98848914    -0.55290
C3148       C  0.62525236  0.98451865  0.88570612     0.84760
O3149       O  0.60448835  0.55497414  0.89879406    -0.57190
O3150       O  0.64690486  0.54673639  0.02784347    -0.60480
In3151     In  0.73053657  0.67079015  0.87490757     1.36870
C3152       C  0.68387023  0.67179135  0.81753484     0.77210
O3153       O  0.75358439  0.64988686  0.80786163    -0.61230
O3154       O  0.74738338  0.62487367  0.87820477    -0.52150
C3155       C  0.75953147  0.71571790  0.92048990     0.69880
O3156       O  0.75494913  0.71594207  0.87192910    -0.47000
C3157       C  0.68683561  0.67296983  0.93962463     0.74580
O3158       O  0.70292704  0.69357856  0.81655638    -0.58860
O3159       O  0.70143400  0.64950587  0.93675623    -0.48950
O3160       O  0.69200038  0.64826316  0.83863640    -0.55290
C3161       C  0.75329018  0.62451909  0.83012450     0.84760
O3162       O  0.75678637  0.68999621  0.94141060    -0.57190
O3163       O  0.69819101  0.69551962  0.91689368    -0.60480
In3164     In  0.51877758  0.67124944  0.71883378     1.36870
C3165       C  0.56545377  0.66803659  0.99497527     0.77210
O3166       O  0.99601978  0.68776598  0.98187215    -0.61230
O3167       O  0.49419921  0.71355577  0.71854447    -0.52150
C3168       C  0.99341665  0.62346646  0.76267111     0.69880
O3169       O  0.49888962  0.62423285  0.71444287    -0.47000
C3170       C  0.56173169  0.68014298  0.78429761     0.74580
O3171       O  0.54821856  0.64514682  0.00091361    -0.58860
O3172       O  0.54711594  0.70210161  0.77050080    -0.48950
O3173       O  0.55579184  0.69246066  0.01005513    -0.55290
C3174       C  0.99159627  0.71287742  0.66956693     0.84760
O3175       O  0.99441536  0.64890089  0.78513282    -0.57190
O3176       O  0.55091246  0.65472978  0.77191824    -0.60480
In3177     In  0.87504459  0.56042298  0.95603468     1.36870
C3178       C  0.87270608  0.59776823  0.87865670     0.77170
O3179       O  0.85496740  0.60142101  0.98380671    -0.61230
O3180       O  0.89923791  0.59627283  0.00391931    -0.52150
C3181       C  0.82987714  0.53563266  0.00658381     0.69880
O3182       O  0.83126177  0.53479488  0.95750297    -0.47000
C3183       C  0.92129998  0.53409081  0.92258530     0.74580
O3184       O  0.85085543  0.58011036  0.88904201    -0.58860
O3185       O  0.91944644  0.54291879  0.96924202    -0.48950
O3186       O  0.89599770  0.59169692  0.90085005    -0.55290
C3187       C  0.87839806  0.61375461  0.66723536     0.84760
O3188       O  0.85397043  0.54223679  0.02896041    -0.57190
O3189       O  0.89715707  0.53115841  0.89871896    -0.60480
In3190     In  0.87827175  0.77513422  0.78310644     1.36870
C3191       C  0.88130254  0.73898760  0.70318362     0.77210
O3192       O  0.90014638  0.73463911  0.80585334    -0.61230
O3193       O  0.85707765  0.73925872  0.83434971    -0.52150
C3194       C  0.92201471  0.80024799  0.83696447     0.69880
O3195       O  0.92153451  0.80175158  0.78788264    -0.47000
C3196       C  0.83059301  0.80040352  0.75257234     0.74580
O3197       O  0.90255759  0.75744864  0.71360582    -0.58860
O3198       O  0.83255632  0.78874833  0.79703948    -0.48950
O3199       O  0.85828916  0.74289984  0.72823230    -0.55290
C3200       C  0.87840178  0.72248301  0.82861926     0.84760
O3201       O  0.89763775  0.79285651  0.85775621    -0.57190
O3202       O  0.85483346  0.80581890  0.72965316    -0.60480
In3203     In  0.76978379  0.91902364  0.87851224     1.36870
C3204       C  0.81568544  0.92487708  0.93861529     0.77210
O3205       O  0.74691922  0.89960503  0.94842318    -0.61230
O3206       O  0.74472163  0.87435072  0.87760315    -0.52150
C3207       C  0.74498312  0.96377084  0.83369106     0.69880
O3208       O  0.75060178  0.96406071  0.88183131    -0.47000
C3209       C  0.81359960  0.91198888  0.81617481     0.74580
O3210       O  0.80155838  0.94767223  0.92758931    -0.58860
O3211       O  0.79598343  0.88989847  0.82605390    -0.48950
O3212       O  0.80350439  0.90010140  0.92595747    -0.55290
C3213       C  0.74244225  0.87419587  0.92664887     0.84760
O3214       O  0.74555817  0.93823471  0.81189560    -0.57190
O3215       O  0.80505999  0.93721909  0.82942613    -0.60480
In3216     In  0.98223097  0.91719737  0.71065499     1.36870
C3217       C  0.93765007  0.91734231  0.98076290     0.77210
O3218       O  0.50764120  0.89793911  0.97826825    -0.61230
O3219       O  0.00335743  0.87294936  0.71547036    -0.52150
C3220       C  0.50811368  0.96377092  0.75829529     0.69880
O3221       O  0.00380488  0.96370540  0.70965772    -0.47000
C3222       C  0.93610132  0.91638918  0.77051116     0.74580
O3223       O  0.95602827  0.93968644  0.98269097    -0.58860
O3224       O  0.95080868  0.89306841  0.76645842    -0.48950
O3225       O  0.94565542  0.89399643  0.00268039    -0.55290
C3226       C  0.50893572  0.87272694  0.66722340     0.84760
O3227       O  0.50586965  0.93805638  0.77937729    -0.57190
O3228       O  0.94844552  0.93983998  0.75250128    -0.60480
In3229     In  0.00089929  0.54326274  0.84317332     1.36870
C3230       C  0.00962513  0.99201051  0.78909073     0.77210
O3231       O  0.54976415  0.55706025  0.84680512    -0.61230
O3232       O  0.52802705  0.54571858  0.91670406    -0.52150
C3233       C  0.49199487  0.59488267  0.79177223     0.69880
O3234       O  0.49324791  0.56972369  0.76976548    -0.47000
C3235       C  0.94975646  0.53348982  0.89516660     0.74580
O3236       O  0.00908599  0.51752341  0.76849969    -0.58860
O3237       O  0.97365740  0.54063043  0.91701257    -0.48950
O3238       O  0.00727480  0.99264795  0.83783966    -0.55290
C3239       C  0.55189824  0.55337931  0.89506340     0.84760
O3240       O  0.49373832  0.59365867  0.84049036    -0.57190
O3241       O  0.95199986  0.52994982  0.84679017    -0.60480
In3242     In  0.00019284  0.79198975  0.91812345     1.36870
C3243       C  0.49007413  0.74062041  0.97197564     0.77210
O3244       O  0.52578926  0.77946270  0.84547142    -0.61230
O3245       O  0.54953241  0.78706393  0.91457408    -0.52150
C3246       C  0.94964512  0.80102232  0.86692350     0.69880
O3247       O  0.95056156  0.79354927  0.91393000    -0.47000
C3248       C  0.01035914  0.84426502  0.97089496     0.74580
O3249       O  0.99317629  0.74104785  0.92333269    -0.58860
O3250       O  0.00878163  0.84298309  0.92210395    -0.48950
O3251       O  0.49022619  0.76633796  0.99249452    -0.55290
C3252       C  0.55055291  0.78113185  0.86676456     0.84760
O3253       O  0.97452616  0.80512438  0.84642563    -0.57190
O3254       O  0.00865160  0.81889382  0.99229844    -0.60480
In3255     In  0.75002835  0.54341005  0.75021899     1.36870
C3256       C  0.74282407  0.99184708  0.80407248     0.77210
O3257       O  0.70061532  0.54592476  0.74754886    -0.61230
O3258       O  0.72388806  0.55421159  0.67792120    -0.52150
C3259       C  0.75580797  0.59600741  0.80155460     0.69880
O3260       O  0.75244146  0.57093010  0.82367512    -0.47000
C3261       C  0.80163378  0.53491932  0.70162852     0.74580
O3262       O  0.74680444  0.51729272  0.82502433    -0.58860
O3263       O  0.77719571  0.53055517  0.67975081    -0.48950
O3264       O  0.74081146  0.99263086  0.75530540    -0.55290
C3265       C  0.69926877  0.55183983  0.69992327     0.84760
O3266       O  0.75806050  0.59436434  0.75284992    -0.57190
O3267       O  0.79972889  0.54261845  0.74854798    -0.60480
In3268     In  0.75083369  0.79423922  0.67416991     1.36870
C3269       C  0.74137793  0.84586395  0.95656481     0.77210
O3270       O  0.77849930  0.79199449  0.74670681    -0.61230
O3271       O  0.79936402  0.80921855  0.67927881    -0.52150
C3272       C  0.69951173  0.78589211  0.72638641     0.69880
O3273       O  0.70211345  0.78004560  0.67876650    -0.47000
C3274       C  0.76067559  0.74370948  0.95202790     0.74580
O3275       O  0.74696864  0.84504491  0.00438679    -0.58860
O3276       O  0.75624007  0.74370320  0.00032950    -0.48950
O3277       O  0.73923017  0.82033203  0.93535256    -0.55290
C3278       C  0.80202614  0.80192459  0.72616311     0.84760
O3279       O  0.72316735  0.79472504  0.74758994    -0.57190
O3280       O  0.76153187  0.76957753  0.93241961    -0.60480
C3281       C  0.88635479  0.90012603  0.99193552    -0.20680
C3282       C  0.90675682  0.91930201  0.96561347    -0.07240
C3283       C  0.89667036  0.94164073  0.93265536     0.13630
C3284       C  0.86640962  0.94520319  0.92876131    -0.20730
C3285       C  0.84619576  0.92603883  0.95557061    -0.07250
C3286       C  0.85634216  0.90294633  0.98691475     0.13620
C3287       C  0.83565036  0.88079790  0.68129492    -0.24080
H3288       H  0.89385359  0.88287596  0.68410706     0.14900
H3289       H  0.85846446  0.96164563  0.90207740     0.14930
C3290       C  0.91758547  0.96029188  0.89946964    -0.24030
H3291       H  0.84735136  0.86665246  0.70888495     0.05140
H3292       H  0.82445665  0.86532641  0.65304088     0.08370
H3293       H  0.81906196  0.89298742  0.70332807     0.08370
H3294       H  0.93101912  0.94535960  0.87573702     0.08350
H3295       H  0.93223429  0.97467761  0.92430224     0.08350
H3296       H  0.90587613  0.97490484  0.87269952     0.05130
C3297       C  0.85696611  0.93577203  0.77682586    -0.20680
C3298       C  0.84392453  0.90978725  0.79887874    -0.07240
C3299       C  0.86159034  0.88639696  0.81479580     0.13630
C3300       C  0.89189953  0.88936337  0.80643836    -0.20730
C3301       C  0.90499120  0.91580727  0.78539354    -0.07250
C3302       C  0.88710716  0.93966330  0.77111888     0.13620
C3303       C  0.89884377  0.96944590  0.74920577    -0.24080
H3304       H  0.84333238  0.95386560  0.76559955     0.14900
H3305       H  0.90546797  0.87112160  0.81702924     0.14930
C3306       C  0.84899885  0.85906674  0.84274028    -0.24030
H3307       H  0.88129473  0.98534682  0.74283388     0.05140
H3308       H  0.90934215  0.96605225  0.71098192     0.08370
H3309       H  0.91469732  0.98054139  0.77662427     0.08370
H3310       H  0.83162991  0.84771470  0.81886160     0.08350
H3311       H  0.83962915  0.86578175  0.88044976     0.08350
H3312       H  0.86586564  0.84268912  0.85072007     0.05130
C3313       C  0.90886909  0.69439756  0.68780906    -0.20680
C3314       C  0.88416073  0.71035254  0.67594480    -0.07240
C3315       C  0.85886180  0.69460776  0.65705333     0.13630
C3316       C  0.85754336  0.66324311  0.65728831    -0.20730
C3317       C  0.88133561  0.64688037  0.67337944    -0.07250
C3318       C  0.90772345  0.66278283  0.68714092     0.13620
C3319       C  0.93432546  0.64686948  0.70308886    -0.24080
H3320       H  0.92831868  0.70661244  0.70213525     0.14900
H3321       H  0.83741518  0.65153862  0.64514747     0.14930
C3322       C  0.83291412  0.71074829  0.63738774    -0.24030
H3323       H  0.95197664  0.66312165  0.71586948     0.05140
H3324       H  0.94269956  0.63388145  0.66986263     0.08370
H3325       H  0.92892947  0.63163754  0.73611084     0.08370
H3326       H  0.84026202  0.72738714  0.94086297     0.08350
H3327       H  0.82168335  0.72236036  0.66922746     0.08350
H3328       H  0.81648266  0.69481029  0.61919743     0.05130
C3329       C  0.89833580  0.64139533  0.83988352    -0.20680
C3330       C  0.87133276  0.62716229  0.85324175    -0.07240
C3331       C  0.84661952  0.64464851  0.85852722     0.13630
C3332       C  0.84961737  0.67578292  0.85061360    -0.20730
C3333       C  0.87702746  0.69013412  0.84070000    -0.07250
C3334       C  0.90189704  0.67262333  0.83609591     0.13620
C3335       C  0.93263904  0.68634536  0.83058436    -0.24080
H3336       H  0.91750305  0.62812828  0.83700309     0.14900
H3337       H  0.83047091  0.68907247  0.85324747     0.14930
C3338       C  0.81735634  0.63110694  0.87483660    -0.24030
H3339       H  0.94924360  0.66918279  0.83392125     0.05140
H3340       H  0.93709040  0.70316666  0.86190124     0.08370
H3341       H  0.93580084  0.69707305  0.79220290     0.08370
H3342       H  0.81844910  0.62070988  0.91362654     0.08350
H3343       H  0.81011075  0.61368477  0.84615468     0.08350
H3344       H  0.80098279  0.64853706  0.87753264     0.05130
C3345       C  0.61185160  0.70126616  0.77309616    -0.20680
C3346       C  0.59204968  0.68269650  0.80198886    -0.07240
C3347       C  0.60268428  0.66006315  0.83383113     0.13630
C3348       C  0.63272003  0.65676371  0.83645746    -0.20730
C3349       C  0.65257897  0.67482054  0.80694531    -0.07250
C3350       C  0.64203733  0.69695651  0.77431859     0.13620
C3351       C  0.66242118  0.71427660  0.73842763    -0.24080
H3352       H  0.60353482  0.71738335  0.74619294     0.14900
H3353       H  0.64066528  0.63970250  0.86185565     0.14930
C3354       C  0.58242271  0.63842037  0.86360538    -0.24030
H3355       H  0.65033559  0.72817193  0.71114904     0.05140
H3356       H  0.67526786  0.69851489  0.71539414     0.08370
H3357       H  0.67783035  0.72891199  0.76130221     0.08370
H3358       H  0.57051905  0.62257601  0.83684273     0.08350
H3359       H  0.56639790  0.65106824  0.88615626     0.08350
H3360       H  0.59458832  0.62445446  0.89080952     0.05130
C3361       C  0.60860546  0.69381199  0.95750862    -0.20680
C3362       C  0.59600324  0.66724210  0.97826819    -0.07240
C3363       C  0.61390689  0.64348464  0.99122615     0.13630
C3364       C  0.64394636  0.64650925  0.98056642    -0.20730
C3365       C  0.65651029  0.67299609  0.95877474    -0.07250
C3366       C  0.63849831  0.69733248  0.94799145     0.13620
C3367       C  0.64987339  0.72719626  0.92597932    -0.24080
H3368       H  0.59480742  0.71225087  0.94899196     0.14900
H3369       H  0.65761244  0.62794284  0.65543811     0.14930
C3370       C  0.60176365  0.61536751  0.68416605    -0.24030
H3371       H  0.63256090  0.74372492  0.92385702     0.05140
H3372       H  0.65806010  0.72420078  0.88585273     0.08370
H3373       H  0.66749177  0.73725727  0.95108353     0.08370
H3374       H  0.58490654  0.60391296  0.65919865     0.08350
H3375       H  0.59193752  0.62119946  0.72205740     0.08350
H3376       H  0.61900044  0.59930481  0.69159492     0.05130
C3377       C  0.64790746  0.92671359  0.67613822    -0.20680
C3378       C  0.62257446  0.94234640  0.68613857    -0.07240
C3379       C  0.59610776  0.92571018  0.69692515     0.13630
C3380       C  0.59603603  0.89422395  0.69972513    -0.20730
C3381       C  0.62175538  0.87906068  0.69221622    -0.07250
C3382       C  0.64769699  0.89540943  0.67782533     0.13620
C3383       C  0.67531359  0.88002445  0.66406951    -0.24080
H3384       H  0.66825282  0.93899438  0.66660815     0.14900
H3385       H  0.57624011  0.88155742  0.71143961     0.14930
C3386       C  0.56802972  0.94068914  0.70662314    -0.24030
H3387       H  0.69228648  0.89632284  0.64860592     0.05140
H3388       H  0.67053518  0.86274749  0.63363791     0.08370
H3389       H  0.68478874  0.86936703  0.69846698     0.08370
H3390       H  0.56133472  0.95259523  0.67120077     0.08350
H3391       H  0.57078860  0.95673200  0.73956148     0.08350
H3392       H  0.55021656  0.92393379  0.71680485     0.05130
C3393       C  0.64754692  0.90525156  0.86572649    -0.20680
C3394       C  0.62014102  0.89066031  0.85675989    -0.07240
C3395       C  0.59521654  0.90799446  0.85122524     0.13630
C3396       C  0.59868481  0.93928465  0.85391089    -0.20730
C3397       C  0.62592475  0.95389477  0.86438788    -0.07250
C3398       C  0.65073591  0.93660319  0.87000559     0.13620
C3399       C  0.68050329  0.95073783  0.88175824    -0.24080
H3400       H  0.66674332  0.89208560  0.86879173     0.14900
H3401       H  0.57951010  0.95248742  0.85072371     0.14930
C3402       C  0.56462590  0.89408581  0.84424475    -0.24030
H3403       H  0.69722181  0.93360089  0.88384351     0.05140
H3404       H  0.68055234  0.96253857  0.91962335     0.08370
H3405       H  0.68675299  0.96700910  0.85072031     0.08370
H3406       H  0.55978292  0.87714721  0.87500854     0.08350
H3407       H  0.56219156  0.88349523  0.80540455     0.08350
H3408       H  0.54781616  0.91114226  0.84705097     0.05130
loop_ 
_geom_bond_atom_site_label_1 
_geom_bond_atom_site_label_2 
_geom_bond_distance 
_geom_bond_site_symmetry_2 
_ccdc_geom_bond_type 
In1           O3   2.184       .  S
In1           O4   2.246       .  S
In1          O12   2.243       .  S
In1           O6   2.253       .  S
In1           O8   2.260       .  S
In1           O9   2.245       .  S
In1          O10   2.174       .  S
In1          O13   2.240       .  S
C2            O8   1.271       .  A
C2           O10   1.254       .  A
C2          C257   1.461       .  S
O3           C11   1.254       .  A
O4           C11   1.270       .  A
C5           O12   1.266       .  A
C5            O6   1.269       .  A
C5          C128   1.485       .  S
C7            O9   1.268       .  A
C7           O13   1.268       .  A
C7          C148   1.483       .  S
C11         C270   1.469       .  S
In14         O25   2.247       .  S
In14         O19   2.234       .  S
In14         O22   2.248       .  S
In14         O26   2.237       .  S
In14        O868   2.182   1_545  S
In14        O869   2.255       .  S
In14       O1157   2.260   1_545  S
In14        O875   2.193   1_545  S
C15          O21   1.268       .  A
C15         O591   1.256   1_554  A
C15         C254   1.480       .  S
O16        In866   2.182       .  S
O16          C24   1.255       .  A
O17        In866   2.255       .  S
O17          C24   1.268       .  A
C18          O25   1.268       .  A
C18          O19   1.268       .  A
C18         C115   1.479       .  S
C20          O22   1.268       .  A
C20          O26   1.267       .  A
C20         C425   1.480       .  S
O21       In1434   2.260   1_554  S
O23        In866   2.193       .  S
O23         C299   1.256       .  A
C24         C273   1.469       .  S
In27         O29   2.246       .  S
In27         O30   2.224       .  S
In27         O38   2.237       .  S
In27         O32   2.249       .  S
In27         O34   2.247       .  S
In27         O35   2.254       .  S
In27         O36   2.192       .  S
In27         O39   2.174       .  S
C28          O34   1.270       .  A
C28          O36   1.256       .  A
C28         C225   1.472       .  S
O29          C37   1.268       .  A
O30          C37   1.268       .  A
C31          O38   1.268       .  A
C31          O32   1.270       .  A
C31         C150   1.483       .  S
C33          O35   1.271       .  A
C33          O39   1.253       .  A
C33         C241   1.472       .  S
C37         C135   1.474       .  S
In40         O43   2.244   1_455  S
In40         O45   2.240   1_455  S
In40         O48   2.269       .  S
In40         O52   2.171       .  S
In40       O2314   2.239   1_454  S
In40       O1755   2.245   1_455  S
In40        O615   2.248       .  S
In40        O617   2.184       .  S
C41          O47   1.265       .  A
C41          O49   1.255       .  A
C41         C238   1.464       .  S
O42       In2028   2.239       .  S
O42         C334   1.266       .  A
O43        C1754   1.269       .  A
C44          O51   1.268       .  A
C44        O1749   1.268       .  A
C44        C1813   1.478       .  S
O45        C1748   1.268       .  A
C46          O48   1.266       .  A
C46          O52   1.251       .  A
C46         C222   1.461       .  S
O47        In324   2.248       .  S
O49        In324   2.184       .  S
C50         O610   1.266   1_554  A
C50        O1747   1.269       .  A
C50        C2391   1.478   1_554  S
O51       In1744   2.245       .  S
In53         O55   2.202       .  S
In53         O56   2.258       .  S
In53         O64   2.245       .  S
In53         O58   2.253       .  S
In53         O60   2.259       .  S
In53         O61   2.242       .  S
In53         O62   2.179       .  S
In53         O65   2.240       .  S
C54          O60   1.268       .  A
C54          O62   1.254       .  A
C54         C206   1.470       .  S
O55         C347   1.256       .  A
O56         C347   1.266       .  A
C57          O64   1.266       .  A
C57          O58   1.267       .  A
C57         C421   1.482       .  S
C59          O61   1.268       .  A
C59          O65   1.267       .  A
C59         C111   1.482       .  S
C63         O623   1.256   1_554  A
C63         O624   1.266       .  A
C63         C193   1.481       .  S
In66         O68   2.190       .  S
In66         O69   2.255       .  S
In66         O77   2.244       .  S
In66         O71   2.257       .  S
In66         O73   2.266       .  S
In66         O74   2.236       .  S
In66         O75   2.179       .  S
In66         O78   2.257       .  S
C67          O73   1.268       .  A
C67          O75   1.253       .  A
C67         C190   1.464       .  S
O68          C76   1.253       .  A
O69          C76   1.268       .  A
C70          O77   1.265       .  A
C70          O71   1.268       .  A
C70         C122   1.483       .  S
C72          O74   1.266       .  A
C72          O78   1.268       .  A
C72         C154   1.481       .  S
C76         C209   1.472       .  S
In79         O81   2.236       .  S
In79         O82   2.242       .  S
In79         O90   2.244       .  S
In79         O84   2.231       .  S
In79         O86   2.268       .  S
In79         O87   2.255       .  S
In79         O88   2.178       .  S
In79         O91   2.173       .  S
C80          O86   1.265       .  A
C80          O88   1.251       .  A
C80         C161   1.463       .  S
O81          C89   1.267       .  A
O82          C89   1.268       .  A
C83          O90   1.267       .  A
C83          O84   1.268       .  A
C83         C132   1.475       .  S
C85          O87   1.265       .  A
C85          O91   1.254       .  A
C85         C174   1.465       .  S
C89         C145   1.480       .  S
In92         O95   2.243       .  S
In92         O97   2.246       .  S
In92        O100   2.265       .  S
In92        O104   2.171       .  S
In92       O2366   2.245   1_554  S
In92       O1807   2.250       .  S
In92        O667   2.256   1_554  S
In92        O669   2.196       .  S
C93          O99   1.269       .  A
C93         O101   1.257       .  A
C93         C158   1.475       .  S
O94       In2080   2.245   1_455  S
O94         C386   1.267       .  A
O95        C1806   1.269       .  A
C96         O103   1.268       .  A
C96        O1801   1.270       .  A
C96        C1810   1.482       .  S
O97        C1800   1.270       .  A
C98         O100   1.270       .  A
C98         O104   1.251       .  A
C98         C177   1.473       .  S
O99        In376   2.256       .  S
O101       In376   2.196       .  S
C102        O662   1.267   1_554  A
C102       O1799   1.269       .  A
C102       C2396   1.481   1_554  S
O103      In1796   2.250   1_455  S
In105       O112   2.276       .  S
In105       O113   2.273       .  S
In105       O117   2.287       .  S
In105      O1811   2.290       .  S
In105      O1812   2.268       .  S
In105      O1820   2.285       .  S
In105      O1814   2.271       .  S
In105       O966   2.290   1_545  S
C106        O114   1.261       .  A
C106        O964   1.257       .  A
C106       C1800   1.482       .  S
O107      In1809   2.290       .  S
O107        C115   1.260       .  A
O108      In1809   2.268       .  S
O108        C115   1.257       .  A
C109        O116   1.260       .  A
C109        O110   1.257       .  A
C109       C1748   1.478       .  S
O110      In1809   2.271   1_655  S
C111        O113   1.257       .  A
C111        O117   1.261       .  A
O112        C958   1.257   1_545  A
O114       In957   2.290       .  S
O116      In1809   2.285   1_655  S
In118       O129   2.288       .  S
In118       O123   2.279       .  S
In118       O125   2.277       .  S
In118       O126   2.285       .  S
In118       O130   2.275       .  S
In118      O1824   2.289       .  S
In118      O1825   2.282       .  S
In118      O1831   2.269       .  S
C119        O127   1.258       .  A
C119       O1829   1.262       .  A
C119       C2038   1.478       .  S
O120      In1822   2.289       .  S
O120        C128   1.259       .  A
O121      In1822   2.282       .  S
O121        C128   1.261       .  A
C122        O129   1.259       .  A
C122        O123   1.260       .  A
C124        O126   1.261       .  A
C124        O130   1.258       .  A
C124       C2090   1.481       .  S
O125       C1823   1.262       .  A
O127      In1822   2.269   1_655  S
In131       O133   2.272       .  S
In131       O134   2.284       .  S
In131       O142   2.279       .  S
In131       O136   2.250       .  S
In131       O138   2.257       .  S
In131       O139   2.286       .  S
In131       O143   2.277       .  S
In131       O992   2.281   1_545  S
C132        O140   1.262       .  A
C132        O990   1.257       .  A
O133        C141   1.259       .  A
O134        C141   1.260       .  A
C135        O142   1.262       .  A
C135        O136   1.258       .  A
C137        O139   1.260       .  A
C137        O143   1.260       .  A
C137        C625   1.482       .  S
O138        C984   1.257   1_545  A
O140       In983   2.281       .  S
C141        C588   1.480       .  S
In144       O146   2.267       .  S
In144       O147   2.289       .  S
In144       O155   2.275       .  S
In144       O149   2.288       .  S
In144       O719   2.279       .  S
In144       O720   2.282       .  S
In144       O721   2.276   1_554  S
In144       O724   2.285   1_554  S
C145        O151   1.261       .  A
C145        O153   1.258       .  A
O146        C154   1.259       .  A
O147        C154   1.261       .  A
C148        O155   1.258       .  A
C148        O149   1.260       .  A
C150        O152   1.261       .  A
C150        O156   1.258       .  A
O151       In428   2.279       .  S
O152       In428   2.282       .  S
O153       In428   2.276       .  S
O156       In428   2.285       .  S
C157        C158   1.406       .  A
C157        C162   1.392       .  A
C157        H448   1.083       .  S
C158        C159   1.408       .  A
C159        C160   1.406       .  A
C159        C166   1.502       .  S
C160        C161   1.407       .  A
C160        H165   1.084       .  S
C161        C162   1.409       .  A
C162        C447   1.511       .  S
C163        C730   1.511   1_554  S
C163        H167   1.110       .  S
C163        H168   1.108   1_554  S
C163        H169   1.110       .  S
H164        C725   1.083   1_554  S
C166        H170   1.110       .  S
C166        H171   1.106       .  S
C166        H172   1.109       .  S
C173        C174   1.396       .  A
C173        C178   1.389       .  A
C173        H180   1.085       .  S
C174        C175   1.414       .  A
C175        C176   1.403       .  A
C175        C182   1.504       .  S
C176        C177   1.403       .  A
C176        H181   1.084       .  S
C177        C178   1.425       .  A
C178        C179   1.515       .  S
C179        H183   1.111       .  S
C179        H184   1.108       .  S
C179        H185   1.110       .  S
C182        H186   1.106       .  S
C182        H187   1.108       .  S
C182        H188   1.110       .  S
C189        C190   1.402       .  A
C189        C194   1.405       .  A
C189        H196   1.083       .  S
C190        C191   1.408   1_554  A
C191        C192   1.394       .  A
C191        C198   1.510       .  S
C192        C193   1.406   1_556  A
C192        H197   1.081       .  S
C193        C194   1.413       .  A
C194        C195   1.500       .  S
C195        H199   1.106       .  S
C195        H200   1.110       .  S
C195        H201   1.110       .  S
C198        H203   1.108   1_556  S
C198        H204   1.110       .  S
C198        H770   1.110       .  S
H202        C482   1.110       .  S
C205        C206   1.402       .  A
C205        C210   1.395       .  A
C205        H212   1.085       .  S
C206        C207   1.412       .  A
C207        C208   1.401       .  A
C207        C214   1.499       .  S
C208        C209   1.401       .  A
C208        H213   1.085       .  S
C209        C210   1.417       .  A
C210        C211   1.511       .  S
C211        H215   1.109       .  S
C211        H216   1.111       .  S
C211        H217   1.106       .  S
C214        H218   1.106       .  S
C214        H219   1.108       .  S
C214        H220   1.109       .  S
C221        C222   1.408       .  A
C221        C226   1.405       .  A
C221        H228   1.084       .  S
C222        C223   1.410       .  A
C223        C224   1.392       .  A
C223        C230   1.512       .  S
C224        C225   1.405       .  A
C224        H229   1.083       .  S
C225        C226   1.404       .  A
C226        C227   1.499       .  S
C227        H231   1.107       .  S
C227        H232   1.108       .  S
C227        H233   1.105       .  S
C230        H234   1.108       .  S
C230        H235   1.109       .  S
C230        H236   1.110       .  S
C237        C238   1.396       .  A
C237        C242   1.390       .  A
C237        H244   1.085       .  S
C238        C239   1.413       .  A
C239        C240   1.401       .  A
C239        C530   1.505       .  S
C240        C241   1.403       .  A
C240        H529   1.084       .  S
C241        C242   1.424       .  A
C242        C243   1.514       .  S
C243        H247   1.111       .  S
C243        H248   1.109       .  S
C243        H249   1.110       .  S
H245        C808   1.084       .  S
C246        C807   1.505   1_554  S
C246        H250   1.108   1_554  S
C246        H251   1.110       .  S
C246        H252   1.110       .  S
C253        C254   1.406       .  A
C253        C258   1.394       .  A
C253        H260   1.083   1_554  S
C254        C255   1.414       .  A
C255        C256   1.403       .  A
C255        C262   1.499       .  S
C256        C257   1.400       .  A
C256        H261   1.084       .  S
C257        C258   1.409       .  A
C258        C259   1.510   1_554  S
C259        H263   1.109       .  S
C259        H264   1.110       .  S
C259        H265   1.108   1_556  S
C262        H266   1.110       .  S
C262        H267   1.110       .  S
C262        H268   1.107       .  S
C269        C270   1.401       .  A
C269        C274   1.399       .  A
C269        H276   1.085       .  S
C270        C271   1.418       .  A
C271        C272   1.395       .  A
C271        C278   1.512       .  S
C272        C273   1.402       .  A
C272        H277   1.085       .  S
C273        C274   1.413       .  A
C274        C275   1.501       .  S
C275        H279   1.110       .  S
C275        H280   1.106       .  S
C275        H281   1.108       .  S
C278        H282   1.110       .  S
C278        H283   1.108       .  S
C278        H284   1.111       .  S
In285       O287   2.184       .  S
In285       O288   2.246       .  S
In285       O296   2.243       .  S
In285       O290   2.253       .  S
In285       O292   2.260       .  S
In285       O293   2.245       .  S
In285       O294   2.174       .  S
In285       O297   2.240       .  S
C286        O292   1.271       .  A
C286        O294   1.254       .  A
C286        C541   1.461       .  S
O287        C295   1.254       .  A
O288        C295   1.270       .  A
C289        O296   1.266       .  A
C289        O290   1.269       .  A
C289        C412   1.485       .  S
C291        O293   1.268       .  A
C291        O297   1.268       .  A
C291        C432   1.483       .  S
C295        C554   1.469       .  S
In298      O1152   2.182   1_545  S
In298      O1153   2.255       .  S
In298       O309   2.247       .  S
In298       O303   2.234       .  S
In298      O1441   2.260   1_545  S
In298       O306   2.248       .  S
In298      O1159   2.193   1_545  S
In298       O310   2.237       .  S
C299        O305   1.268       .  A
C299        C538   1.480       .  S
O300      In1150   2.182       .  S
O300        C308   1.255       .  A
O301      In1150   2.255       .  S
O301        C308   1.268       .  A
C302        O309   1.268       .  A
C302        O303   1.268       .  A
C302        C399   1.479       .  S
C304        O306   1.268       .  A
C304        O310   1.267       .  A
C304        C709   1.480       .  S
O305       In866   2.260       .  S
O307      In1150   2.193       .  S
O307        C583   1.256       .  A
C308        C557   1.469       .  S
In311       O313   2.246       .  S
In311       O314   2.224       .  S
In311       O322   2.237       .  S
In311       O316   2.249       .  S
In311       O318   2.247       .  S
In311       O319   2.254       .  S
In311       O320   2.192       .  S
In311       O323   2.174       .  S
C312        O318   1.270       .  A
C312        O320   1.256       .  A
C312        C509   1.472       .  S
O313        C321   1.268       .  A
O314        C321   1.268       .  A
C315        O322   1.268       .  A
C315        O316   1.270       .  A
C315        C434   1.483       .  S
C317        O319   1.271       .  A
C317        O323   1.253       .  A
C317        C525   1.472       .  S
C321        C419   1.474       .  S
In324      O1746   2.239   1_455  S
In324       O327   2.244   1_455  S
In324      O2039   2.245   1_455  S
In324       O329   2.240   1_455  S
In324       O332   2.269       .  S
In324       O336   2.171       .  S
C325        O331   1.265       .  A
C325        O333   1.255       .  A
C325        C522   1.464       .  S
O326      In2312   2.239       .  S
O326        C618   1.266       .  A
O327       C2038   1.269       .  A
C328        O335   1.268       .  A
C328       O2033   1.268       .  A
C328       C2097   1.478       .  S
O329       C2032   1.268       .  A
C330        O332   1.266       .  A
C330        O336   1.251       .  A
C330        C506   1.461       .  S
O331       In608   2.248       .  S
O333       In608   2.184       .  S
C334       O2031   1.269       .  A
C334       C1823   1.478       .  S
O335      In2028   2.245       .  S
In337       O339   2.202       .  S
In337       O340   2.258       .  S
In337       O348   2.245       .  S
In337       O342   2.253       .  S
In337       O344   2.259       .  S
In337       O345   2.242       .  S
In337       O346   2.179       .  S
In337       O349   2.240       .  S
C338        O344   1.268       .  A
C338        O346   1.254       .  A
C338        C490   1.470       .  S
O339        C631   1.256       .  A
O340        C631   1.266       .  A
C341        O348   1.266       .  A
C341        O342   1.267       .  A
C341        C705   1.482       .  S
C343        O345   1.268       .  A
C343        O349   1.267       .  A
C343        C395   1.482       .  S
C347        C477   1.481       .  S
In350       O352   2.190       .  S
In350       O353   2.255       .  S
In350       O361   2.244       .  S
In350       O355   2.257       .  S
In350       O357   2.266       .  S
In350       O358   2.236       .  S
In350       O359   2.179       .  S
In350       O362   2.257       .  S
C351        O357   1.268       .  A
C351        O359   1.253       .  A
C351        C474   1.464       .  S
O352        C360   1.253       .  A
O353        C360   1.268       .  A
C354        O361   1.265       .  A
C354        O355   1.268       .  A
C354        C406   1.483       .  S
C356        O358   1.266       .  A
C356        O362   1.268       .  A
C356        C438   1.481       .  S
C360        C493   1.472       .  S
In363       O365   2.236       .  S
In363       O366   2.242       .  S
In363       O374   2.244       .  S
In363       O368   2.231       .  S
In363       O370   2.268       .  S
In363       O371   2.255       .  S
In363       O372   2.178       .  S
In363       O375   2.173       .  S
C364        O370   1.265       .  A
C364        O372   1.251       .  A
C364        C445   1.463       .  S
O365        C373   1.267       .  A
O366        C373   1.268       .  A
C367        O374   1.267       .  A
C367        O368   1.268       .  A
C367        C416   1.475       .  S
C369        O371   1.265       .  A
C369        O375   1.254       .  A
C369        C458   1.465       .  S
C373        C429   1.480       .  S
In376      O1798   2.245       .  S
In376       O379   2.243       .  S
In376      O2091   2.250       .  S
In376       O381   2.246       .  S
In376       O384   2.265       .  S
In376       O388   2.171       .  S
C377        O383   1.269       .  A
C377        O385   1.257       .  A
C377        C442   1.475       .  S
O378      In2364   2.245   1_455  S
O378        C670   1.267       .  A
O379       C2090   1.269       .  A
C380        O387   1.268       .  A
C380       O2085   1.270       .  A
C380       C2094   1.482       .  S
O381       C2084   1.270       .  A
C382        O384   1.270       .  A
C382        O388   1.251       .  A
C382        C461   1.473       .  S
O383       In660   2.256       .  S
O385       In660   2.196       .  S
C386       O2083   1.269       .  A
C386       C1828   1.481       .  S
O387      In2080   2.250   1_455  S
In389      O2095   2.290       .  S
In389      O2096   2.268       .  S
In389      O2104   2.285       .  S
In389      O2098   2.271       .  S
In389       O396   2.276       .  S
In389       O397   2.273       .  S
In389      O1250   2.290   1_545  S
In389       O401   2.287       .  S
C390       O1248   1.257       .  A
C390        O398   1.261       .  A
C390       C2084   1.482       .  S
O391      In2093   2.290       .  S
O391        C399   1.260       .  A
O392      In2093   2.268       .  S
O392        C399   1.257       .  A
C393        O400   1.260       .  A
C393        O394   1.257       .  A
C393       C2032   1.478       .  S
O394      In2093   2.271   1_655  S
C395        O397   1.257       .  A
C395        O401   1.261       .  A
O396       C1242   1.257   1_545  A
O398      In1241   2.290       .  S
O400      In2093   2.285   1_655  S
In402      O2108   2.289       .  S
In402      O2109   2.282       .  S
In402       O413   2.288       .  S
In402       O407   2.279       .  S
In402       O409   2.277       .  S
In402       O410   2.285       .  S
In402      O2115   2.269       .  S
In402       O414   2.275       .  S
C403       O2113   1.262       .  A
C403        O411   1.258       .  A
C403       C2322   1.478       .  S
O404      In2106   2.289       .  S
O404        C412   1.259       .  A
O405      In2106   2.282       .  S
O405        C412   1.261       .  A
C406        O413   1.259       .  A
C406        O407   1.260       .  A
C408        O410   1.261       .  A
C408        O414   1.258       .  A
C408       C2374   1.481       .  S
O409       C2107   1.262       .  A
O411      In2106   2.269   1_655  S
In415       O417   2.272       .  S
In415       O418   2.284       .  S
In415       O426   2.279       .  S
In415       O420   2.250       .  S
In415       O422   2.257       .  S
In415       O423   2.286       .  S
In415      O1276   2.281   1_545  S
In415       O427   2.277       .  S
C416       O1274   1.257       .  A
C416        O424   1.262       .  A
O417        C425   1.259       .  A
O418        C425   1.260       .  A
C419        O426   1.262       .  A
C419        O420   1.258       .  A
C421        O423   1.260       .  A
C421        O427   1.260       .  A
O422       C1268   1.257   1_545  A
O424      In1267   2.281       .  S
In428       O430   2.267       .  S
In428       O431   2.289       .  S
In428       O439   2.275       .  S
In428       O433   2.288       .  S
C429        O435   1.261       .  A
C429        O437   1.258       .  A
O430        C438   1.259       .  A
O431        C438   1.261       .  A
C432        O439   1.258       .  A
C432        O433   1.260       .  A
C434        O436   1.261       .  A
C434        O440   1.258       .  A
O435       In712   2.279       .  S
O436       In712   2.282       .  S
O437       In712   2.276       .  S
O440       In712   2.285       .  S
C441        C442   1.406       .  A
C441        C446   1.392       .  A
C441        H732   1.083       .  S
C442        C443   1.408       .  A
C443        C444   1.406       .  A
C443        C450   1.502       .  S
C444        C445   1.407       .  A
C444        H449   1.084       .  S
C445        C446   1.409       .  A
C446        C731   1.511       .  S
C447        H451   1.110       .  S
C447        H452   1.108       .  S
C447        H453   1.110       .  S
C450        H454   1.110       .  S
C450        H455   1.106       .  S
C450        H456   1.109       .  S
C457        C458   1.396       .  A
C457        C462   1.389       .  A
C457        H464   1.085       .  S
C458        C459   1.414       .  A
C459        C460   1.403       .  A
C459        C466   1.504       .  S
C460        C461   1.403       .  A
C460        H465   1.084       .  S
C461        C462   1.425       .  A
C462        C463   1.515       .  S
C463        H467   1.111       .  S
C463        H468   1.108       .  S
C463        H469   1.110       .  S
C466        H470   1.106       .  S
C466        H471   1.108       .  S
C466        H472   1.110       .  S
C473        C474   1.402       .  A
C473        C478   1.405       .  A
C473        H480   1.083       .  S
C474        C475   1.408       .  A
C475        C476   1.394       .  A
C475        C482   1.510       .  S
C476        C477   1.406       .  A
C476        H481   1.081       .  S
C477        C478   1.413       .  A
C478        C479   1.500       .  S
C479        H483   1.106       .  S
C479        H484   1.110       .  S
C479        H485   1.110       .  S
C482        H487   1.108       .  S
C482        H488   1.110       .  S
H486        C766   1.110       .  S
C489        C490   1.402       .  A
C489        C494   1.395       .  A
C489        H496   1.085       .  S
C490        C491   1.412       .  A
C491        C492   1.401       .  A
C491        C498   1.499       .  S
C492        C493   1.401       .  A
C492        H497   1.085       .  S
C493        C494   1.417       .  A
C494        C495   1.511       .  S
C495        H499   1.109       .  S
C495        H500   1.111       .  S
C495        H501   1.106       .  S
C498        H502   1.106       .  S
C498        H503   1.108       .  S
C498        H504   1.109       .  S
C505        C506   1.408       .  A
C505        C510   1.405       .  A
C505        H512   1.084       .  S
C506        C507   1.410       .  A
C507        C508   1.392       .  A
C507        C514   1.512       .  S
C508        C509   1.405       .  A
C508        H513   1.083       .  S
C509        C510   1.404       .  A
C510        C511   1.499       .  S
C511        H515   1.107       .  S
C511        H516   1.108       .  S
C511        H517   1.105       .  S
C514        H518   1.108       .  S
C514        H519   1.109       .  S
C514        H520   1.110       .  S
C521        C522   1.396       .  A
C521        C526   1.390       .  A
C521        H528   1.085       .  S
C522        C523   1.413       .  A
C523        C524   1.401       .  A
C523        C814   1.505       .  S
C524        C525   1.403       .  A
C524        H813   1.084       .  S
C525        C526   1.424       .  A
C526        C527   1.514       .  S
C527        H531   1.111       .  S
C527        H532   1.109       .  S
C527        H533   1.110       .  S
C530        H534   1.108       .  S
C530        H535   1.110       .  S
C530        H536   1.110       .  S
C537        C538   1.406       .  A
C537        C542   1.394       .  A
C537        H544   1.083       .  S
C538        C539   1.414       .  A
C539        C540   1.403       .  A
C539        C546   1.499       .  S
C540        C541   1.400       .  A
C540        H545   1.084       .  S
C541        C542   1.409       .  A
C542        C543   1.510       .  S
C543        H547   1.109       .  S
C543        H548   1.110       .  S
C543        H549   1.108       .  S
C546        H550   1.110       .  S
C546        H551   1.110       .  S
C546        H552   1.107       .  S
C553        C554   1.401       .  A
C553        C558   1.399       .  A
C553        H560   1.085       .  S
C554        C555   1.418       .  A
C555        C556   1.395       .  A
C555        C562   1.512       .  S
C556        C557   1.402       .  A
C556        H561   1.085       .  S
C557        C558   1.413       .  A
C558        C559   1.501       .  S
C559        H563   1.110       .  S
C559        H564   1.106       .  S
C559        H565   1.108       .  S
C562        H566   1.110       .  S
C562        H567   1.108       .  S
C562        H568   1.111       .  S
In569       O571   2.184       .  S
In569       O572   2.246       .  S
In569       O580   2.243       .  S
In569       O574   2.253       .  S
In569       O576   2.260       .  S
In569       O577   2.245       .  S
In569       O578   2.174       .  S
In569       O581   2.240       .  S
C570        O576   1.271       .  A
C570        O578   1.254       .  A
C570        C825   1.461       .  S
O571        C579   1.254       .  A
O572        C579   1.270       .  A
C573        O580   1.266       .  A
C573        O574   1.269       .  A
C573        C696   1.485       .  S
C575        O577   1.268       .  A
C575        O581   1.268       .  A
C575        C716   1.483       .  S
C579        C838   1.469       .  S
In582      O1436   2.182   1_545  S
In582      O1437   2.255       .  S
In582       O593   2.247       .  S
In582       O587   2.234       .  S
In582       O873   2.260   1_546  S
In582       O590   2.248       .  S
In582      O1443   2.193   1_545  S
In582       O594   2.237   1_556  S
C583        O589   1.268       .  A
C583        C822   1.480       .  S
O584      In1434   2.182       .  S
O584        C592   1.255       .  A
O585      In1434   2.255       .  S
O585        C592   1.268       .  A
C586        O593   1.268       .  A
C586        O587   1.268       .  A
C586        C683   1.479       .  S
C588        O590   1.268   1_554  A
C588        O594   1.267       .  A
O589      In1150   2.260       .  S
O591      In1434   2.193       .  S
C592        C841   1.469       .  S
In595       O597   2.246       .  S
In595       O598   2.224       .  S
In595       O606   2.237       .  S
In595       O600   2.249       .  S
In595       O602   2.247       .  S
In595       O603   2.254       .  S
In595       O604   2.192       .  S
In595       O607   2.174       .  S
C596        O602   1.270       .  A
C596        O604   1.256       .  A
C596        C793   1.472       .  S
O597        C605   1.268       .  A
O598        C605   1.268       .  A
C599        O606   1.268       .  A
C599        O600   1.270       .  A
C599        C718   1.483       .  S
C601        O603   1.271       .  A
C601        O607   1.253       .  A
C601        C809   1.472       .  S
C605        C703   1.474       .  S
In608      O2030   2.239   1_455  S
In608       O611   2.244   1_455  S
In608      O2323   2.245   1_455  S
In608       O613   2.240   1_455  S
In608       O616   2.269       .  S
In608       O620   2.171       .  S
C609        O615   1.265   1_556  A
C609        O617   1.255   1_556  A
C609        C806   1.464       .  S
O610      In1744   2.239   1_556  S
O611       C2322   1.269       .  A
C612        O619   1.268       .  A
C612       O2317   1.268       .  A
C612       C2381   1.478       .  S
O613       C2316   1.268       .  A
C614        O616   1.266       .  A
C614        O620   1.251       .  A
C614        C790   1.461       .  S
C618       O2315   1.269       .  A
C618       C2107   1.478       .  S
O619      In2312   2.245       .  S
In621       O623   2.202       .  S
In621       O624   2.258   1_556  S
In621       O632   2.245   1_556  S
In621       O626   2.253       .  S
In621       O628   2.259       .  S
In621       O629   2.242       .  S
In621       O630   2.179       .  S
In621       O633   2.240       .  S
C622        O628   1.268       .  A
C622        O630   1.254       .  A
C622        C774   1.470       .  S
C625        O632   1.266       .  A
C625        O626   1.267   1_554  A
C627        O629   1.268       .  A
C627        O633   1.267       .  A
C627        C679   1.482       .  S
C631        C761   1.481       .  S
In634       O636   2.190       .  S
In634       O637   2.255       .  S
In634       O645   2.244       .  S
In634       O639   2.257       .  S
In634       O641   2.266       .  S
In634       O642   2.236       .  S
In634       O643   2.179       .  S
In634       O646   2.257       .  S
C635        O641   1.268       .  A
C635        O643   1.253       .  A
C635        C758   1.464       .  S
O636        C644   1.253       .  A
O637        C644   1.268       .  A
C638        O645   1.265       .  A
C638        O639   1.268       .  A
C638        C690   1.483       .  S
C640        O642   1.266       .  A
C640        O646   1.268       .  A
C640        C722   1.481       .  S
C644        C777   1.472       .  S
In647       O649   2.236       .  S
In647       O650   2.242       .  S
In647       O658   2.244       .  S
In647       O652   2.231       .  S
In647       O654   2.268       .  S
In647       O655   2.255       .  S
In647       O656   2.178       .  S
In647       O659   2.173       .  S
C648        O654   1.265       .  A
C648        O656   1.251       .  A
C648        C729   1.463       .  S
O649        C657   1.267       .  A
O650        C657   1.268       .  A
C651        O658   1.267       .  A
C651        O652   1.268       .  A
C651        C700   1.475       .  S
C653        O655   1.265       .  A
C653        O659   1.254       .  A
C653        C742   1.465       .  S
C657        C713   1.480       .  S
In660      O2082   2.245       .  S
In660       O663   2.243       .  S
In660      O2375   2.250       .  S
In660       O665   2.246       .  S
In660       O668   2.265       .  S
In660       O672   2.171       .  S
C661        O667   1.269       .  A
C661        O669   1.257   1_556  A
C661        C726   1.475       .  S
O662      In1796   2.245   1_456  S
O663       C2374   1.269       .  A
C664        O671   1.268       .  A
C664       O2369   1.270       .  A
C664       C2378   1.482       .  S
O665       C2368   1.270       .  A
C666        O668   1.270       .  A
C666        O672   1.251       .  A
C666        C745   1.473       .  S
C670       O2367   1.269       .  A
C670       C2112   1.481       .  S
O671      In2364   2.250   1_455  S
In673      O2379   2.290       .  S
In673      O2380   2.268       .  S
In673      O2388   2.285       .  S
In673      O2382   2.271       .  S
In673       O680   2.276       .  S
In673       O681   2.273       .  S
In673      O1534   2.290   1_545  S
In673       O685   2.287       .  S
C674       O1532   1.257       .  A
C674        O682   1.261       .  A
C674       C2368   1.482       .  S
O675      In2377   2.290       .  S
O675        C683   1.260       .  A
O676      In2377   2.268       .  S
O676        C683   1.257       .  A
C677        O684   1.260       .  A
C677        O678   1.257       .  A
C677       C2316   1.478       .  S
O678      In2377   2.271   1_655  S
C679        O681   1.257       .  A
C679        O685   1.261       .  A
O680       C1526   1.257   1_545  A
O682      In1525   2.290       .  S
O684      In2377   2.285   1_655  S
In686      O2392   2.289       .  S
In686      O2393   2.282       .  S
In686       O697   2.288       .  S
In686       O691   2.279       .  S
In686       O693   2.277       .  S
In686       O694   2.285       .  S
In686      O2399   2.269       .  S
In686       O698   2.275       .  S
C687       O2397   1.262       .  A
C687        O695   1.258       .  A
C687       C1754   1.478   1_556  S
O688      In2390   2.289       .  S
O688        C696   1.259       .  A
O689      In2390   2.282       .  S
O689        C696   1.261       .  A
C690        O697   1.259       .  A
C690        O691   1.260       .  A
C692        O694   1.261       .  A
C692        O698   1.258       .  A
C692       C1806   1.481   1_556  S
O693       C2391   1.262       .  A
O695      In2390   2.269   1_655  S
In699       O701   2.272       .  S
In699       O702   2.284       .  S
In699       O710   2.279       .  S
In699       O704   2.250       .  S
In699       O706   2.257       .  S
In699       O707   2.286       .  S
In699      O1560   2.281   1_545  S
In699       O711   2.277       .  S
C700       O1558   1.257       .  A
C700        O708   1.262       .  A
O701        C709   1.259       .  A
O702        C709   1.260       .  A
C703        O710   1.262       .  A
C703        O704   1.258       .  A
C705        O707   1.260       .  A
C705        O711   1.260       .  A
O706       C1552   1.257   1_545  A
O708      In1551   2.281       .  S
In712       O714   2.267       .  S
In712       O715   2.289       .  S
In712       O723   2.275       .  S
In712       O717   2.288       .  S
C713        O719   1.261   1_556  A
C713        O721   1.258       .  A
O714        C722   1.259       .  A
O715        C722   1.261       .  A
C716        O723   1.258       .  A
C716        O717   1.260       .  A
C718        O720   1.261   1_556  A
C718        O724   1.258       .  A
C725        C726   1.406       .  A
C725        C730   1.392       .  A
C726        C727   1.408       .  A
C727        C728   1.406       .  A
C727        C734   1.502       .  S
C728        C729   1.407       .  A
C728        H733   1.084       .  S
C729        C730   1.409       .  A
C731        H735   1.110       .  S
C731        H736   1.108       .  S
C731        H737   1.110       .  S
C734        H738   1.110       .  S
C734        H739   1.106       .  S
C734        H740   1.109       .  S
C741        C742   1.396       .  A
C741        C746   1.389       .  A
C741        H748   1.085       .  S
C742        C743   1.414       .  A
C743        C744   1.403       .  A
C743        C750   1.504       .  S
C744        C745   1.403       .  A
C744        H749   1.084       .  S
C745        C746   1.425       .  A
C746        C747   1.515       .  S
C747        H751   1.111       .  S
C747        H752   1.108       .  S
C747        H753   1.110       .  S
C750        H754   1.106       .  S
C750        H755   1.108       .  S
C750        H756   1.110       .  S
C757        C758   1.402       .  A
C757        C762   1.405       .  A
C757        H764   1.083       .  S
C758        C759   1.408       .  A
C759        C760   1.394       .  A
C759        C766   1.510       .  S
C760        C761   1.406       .  A
C760        H765   1.081       .  S
C761        C762   1.413       .  A
C762        C763   1.500       .  S
C763        H767   1.106       .  S
C763        H768   1.110       .  S
C763        H769   1.110       .  S
C766        H771   1.108       .  S
C766        H772   1.110       .  S
C773        C774   1.402       .  A
C773        C778   1.395       .  A
C773        H780   1.085       .  S
C774        C775   1.412       .  A
C775        C776   1.401       .  A
C775        C782   1.499       .  S
C776        C777   1.401       .  A
C776        H781   1.085       .  S
C777        C778   1.417       .  A
C778        C779   1.511       .  S
C779        H783   1.109       .  S
C779        H784   1.111       .  S
C779        H785   1.106       .  S
C782        H786   1.106       .  S
C782        H787   1.108       .  S
C782        H788   1.109       .  S
C789        C790   1.408       .  A
C789        C794   1.405       .  A
C789        H796   1.084       .  S
C790        C791   1.410       .  A
C791        C792   1.392       .  A
C791        C798   1.512       .  S
C792        C793   1.405       .  A
C792        H797   1.083       .  S
C793        C794   1.404       .  A
C794        C795   1.499       .  S
C795        H799   1.107       .  S
C795        H800   1.108       .  S
C795        H801   1.105       .  S
C798        H802   1.108       .  S
C798        H803   1.109       .  S
C798        H804   1.110       .  S
C805        C806   1.396       .  A
C805        C810   1.390       .  A
C805        H812   1.085       .  S
C806        C807   1.413       .  A
C807        C808   1.401       .  A
C808        C809   1.403       .  A
C809        C810   1.424       .  A
C810        C811   1.514       .  S
C811        H815   1.111       .  S
C811        H816   1.109       .  S
C811        H817   1.110       .  S
C814        H818   1.108       .  S
C814        H819   1.110       .  S
C814        H820   1.110       .  S
C821        C822   1.406       .  A
C821        C826   1.394       .  A
C821        H828   1.083       .  S
C822        C823   1.414       .  A
C823        C824   1.403       .  A
C823        C830   1.499       .  S
C824        C825   1.400       .  A
C824        H829   1.084       .  S
C825        C826   1.409       .  A
C826        C827   1.510       .  S
C827        H831   1.109       .  S
C827        H832   1.110       .  S
C827        H833   1.108       .  S
C830        H834   1.110       .  S
C830        H835   1.110       .  S
C830        H836   1.107       .  S
C837        C838   1.401       .  A
C837        C842   1.399       .  A
C837        H844   1.085       .  S
C838        C839   1.418       .  A
C839        C840   1.395       .  A
C839        C846   1.512       .  S
C840        C841   1.402       .  A
C840        H845   1.085       .  S
C841        C842   1.413       .  A
C842        C843   1.501       .  S
C843        H847   1.110       .  S
C843        H848   1.106       .  S
C843        H849   1.108       .  S
C846        H850   1.110       .  S
C846        H851   1.108       .  S
C846        H852   1.111       .  S
In853       O855   2.184       .  S
In853       O856   2.246       .  S
In853       O864   2.243       .  S
In853       O858   2.253       .  S
In853       O860   2.260       .  S
In853       O861   2.245       .  S
In853       O862   2.174       .  S
In853       O865   2.240       .  S
C854        O860   1.271       .  A
C854        O862   1.254       .  A
C854       C1109   1.461       .  S
O855        C863   1.254       .  A
O856        C863   1.270       .  A
C857        O864   1.266       .  A
C857        O858   1.269       .  A
C857        C980   1.485       .  S
C859        O861   1.268       .  A
C859        O865   1.268       .  A
C859       C1000   1.483       .  S
C863       C1122   1.469       .  S
In866       O877   2.247       .  S
In866       O871   2.234       .  S
In866       O874   2.248       .  S
In866       O878   2.237       .  S
C867        O873   1.268       .  A
C867       O1443   1.256   1_554  A
C867       C1106   1.480       .  S
O868        C876   1.255       .  A
O869        C876   1.268   1_545  A
C870        O877   1.268       .  A
C870        O871   1.268       .  A
C870        C967   1.479       .  S
C872        O874   1.268       .  A
C872        O878   1.267       .  A
C872       C1277   1.480       .  S
O875       C1151   1.256       .  A
C876       C1125   1.469       .  S
In879       O881   2.246       .  S
In879       O882   2.224       .  S
In879       O890   2.237       .  S
In879       O884   2.249       .  S
In879       O886   2.247       .  S
In879       O887   2.254       .  S
In879       O888   2.192       .  S
In879       O891   2.174       .  S
C880        O886   1.270       .  A
C880        O888   1.256       .  A
C880       C1077   1.472       .  S
O881        C889   1.268       .  A
O882        C889   1.268       .  A
C883        O890   1.268       .  A
C883        O884   1.270       .  A
C883       C1002   1.483       .  S
C885        O887   1.271       .  A
C885        O891   1.253       .  A
C885       C1093   1.472       .  S
C889        C987   1.474       .  S
In892      O3166   2.239   1_454  S
In892       O895   2.244   1_455  S
In892      O2607   2.245   1_455  S
In892       O897   2.240   1_455  S
In892      O1467   2.248       .  S
In892       O900   2.269       .  S
In892      O1469   2.184       .  S
In892       O904   2.171       .  S
C893        O899   1.265       .  A
C893        O901   1.255       .  A
C893       C1090   1.464       .  S
O894      In2880   2.239       .  S
O894       C1186   1.266       .  A
O895       C2606   1.269       .  A
C896        O903   1.268       .  A
C896       O2601   1.268       .  A
C896       C2665   1.478       .  S
O897       C2600   1.268       .  A
C898        O900   1.266       .  A
C898        O904   1.251       .  A
C898       C1074   1.461       .  S
O899      In1176   2.248       .  S
O901      In1176   2.184       .  S
C902       O1462   1.266   1_554  A
C902       O2599   1.269       .  A
C902       C3243   1.478   1_554  S
O903      In2596   2.245       .  S
In905       O907   2.202       .  S
In905       O908   2.258       .  S
In905       O916   2.245       .  S
In905       O910   2.253       .  S
In905       O912   2.259       .  S
In905       O913   2.242       .  S
In905       O914   2.179       .  S
In905       O917   2.240       .  S
C906        O912   1.268       .  A
C906        O914   1.254       .  A
C906       C1058   1.470       .  S
O907       C1199   1.256       .  A
O908       C1199   1.266       .  A
C909        O916   1.266       .  A
C909        O910   1.267       .  A
C909       C1273   1.482       .  S
C911        O913   1.268       .  A
C911        O917   1.267       .  A
C911        C963   1.482       .  S
C915       O1475   1.256   1_554  A
C915       O1476   1.266       .  A
C915       C1045   1.481       .  S
In918       O920   2.190       .  S
In918       O921   2.255       .  S
In918       O929   2.244       .  S
In918       O923   2.257       .  S
In918       O925   2.266       .  S
In918       O926   2.236       .  S
In918       O927   2.179       .  S
In918       O930   2.257       .  S
C919        O925   1.268       .  A
C919        O927   1.253       .  A
C919       C1042   1.464       .  S
O920        C928   1.253       .  A
O921        C928   1.268       .  A
C922        O929   1.265       .  A
C922        O923   1.268       .  A
C922        C974   1.483       .  S
C924        O926   1.266       .  A
C924        O930   1.268       .  A
C924       C1006   1.481       .  S
C928       C1061   1.472       .  S
In931       O933   2.236       .  S
In931       O934   2.242       .  S
In931       O942   2.244       .  S
In931       O936   2.231       .  S
In931       O938   2.268       .  S
In931       O939   2.255       .  S
In931       O940   2.178       .  S
In931       O943   2.173       .  S
C932        O938   1.265       .  A
C932        O940   1.251       .  A
C932       C1013   1.463       .  S
O933        C941   1.267       .  A
O934        C941   1.268       .  A
C935        O942   1.267       .  A
C935        O936   1.268       .  A
C935        C984   1.475       .  S
C937        O939   1.265       .  A
C937        O943   1.254       .  A
C937       C1026   1.465       .  S
C941        C997   1.480       .  S
In944      O3218   2.245   1_554  S
In944       O947   2.243       .  S
In944      O2659   2.250       .  S
In944       O949   2.246       .  S
In944      O1519   2.256   1_554  S
In944       O952   2.265       .  S
In944      O1521   2.196       .  S
In944       O956   2.171       .  S
C945        O951   1.269       .  A
C945        O953   1.257       .  A
C945       C1010   1.475       .  S
O946      In2932   2.245   1_455  S
O946       C1238   1.267       .  A
O947       C2658   1.269       .  A
C948        O955   1.268       .  A
C948       O2653   1.270       .  A
C948       C2662   1.482       .  S
O949       C2652   1.270       .  A
C950        O952   1.270       .  A
C950        O956   1.251       .  A
C950       C1029   1.473       .  S
O951      In1228   2.256       .  S
O953      In1228   2.196       .  S
C954       O1514   1.267   1_554  A
C954       O2651   1.269       .  A
C954       C3248   1.481   1_554  S
O955      In2648   2.250   1_455  S
In957      O2663   2.290       .  S
In957      O2664   2.268       .  S
In957      O2672   2.285       .  S
In957      O2666   2.271       .  S
In957       O964   2.276       .  S
In957       O965   2.273       .  S
In957       O969   2.287       .  S
C958        O966   1.261       .  A
C958       C2652   1.482       .  S
O959      In2661   2.290       .  S
O959        C967   1.260       .  A
O960      In2661   2.268       .  S
O960        C967   1.257       .  A
C961        O968   1.260       .  A
C961        O962   1.257       .  A
C961       C2600   1.478       .  S
O962      In2661   2.271   1_655  S
C963        O965   1.257       .  A
C963        O969   1.261       .  A
O968      In2661   2.285   1_655  S
In970      O2676   2.289       .  S
In970      O2677   2.282       .  S
In970       O981   2.288       .  S
In970       O975   2.279       .  S
In970       O977   2.277       .  S
In970       O978   2.285       .  S
In970      O2683   2.269       .  S
In970       O982   2.275       .  S
C971       O2681   1.262       .  A
C971        O979   1.258       .  A
C971       C2890   1.478       .  S
O972      In2674   2.289       .  S
O972        C980   1.259       .  A
O973      In2674   2.282       .  S
O973        C980   1.261       .  A
C974        O981   1.259       .  A
C974        O975   1.260       .  A
C976        O978   1.261       .  A
C976        O982   1.258       .  A
C976       C2942   1.481       .  S
O977       C2675   1.262       .  A
O979      In2674   2.269   1_655  S
In983       O985   2.272       .  S
In983       O986   2.284       .  S
In983       O994   2.279       .  S
In983       O988   2.250       .  S
In983       O990   2.257       .  S
In983       O991   2.286       .  S
In983       O995   2.277       .  S
C984        O992   1.262       .  A
O985        C993   1.259       .  A
O986        C993   1.260       .  A
C987        O994   1.262       .  A
C987        O988   1.258       .  A
C989        O991   1.260       .  A
C989        O995   1.260       .  A
C989       C1477   1.482       .  S
C993       C1440   1.480       .  S
In996       O998   2.267       .  S
In996       O999   2.289       .  S
In996      O1007   2.275       .  S
In996      O1001   2.288       .  S
In996      O1571   2.279       .  S
In996      O1572   2.282       .  S
In996      O1573   2.276   1_554  S
In996      O1576   2.285   1_554  S
C997       O1003   1.261       .  A
C997       O1005   1.258       .  A
O998       C1006   1.259       .  A
O999       C1006   1.261       .  A
C1000      O1007   1.258       .  A
C1000      O1001   1.260       .  A
C1002      O1004   1.261       .  A
C1002      O1008   1.258       .  A
O1003     In1280   2.279       .  S
O1004     In1280   2.282       .  S
O1005     In1280   2.276       .  S
O1008     In1280   2.285       .  S
C1009      C1010   1.406       .  A
C1009      C1014   1.392       .  A
C1009      H1300   1.083       .  S
C1010      C1011   1.408       .  A
C1011      C1012   1.406       .  A
C1011      C1018   1.502       .  S
C1012      C1013   1.407       .  A
C1012      H1017   1.084       .  S
C1013      C1014   1.409       .  A
C1014      C1299   1.511       .  S
C1015      C1582   1.511   1_554  S
C1015      H1019   1.110       .  S
C1015      H1020   1.108   1_554  S
C1015      H1021   1.110       .  S
H1016      C1577   1.083   1_554  S
C1018      H1022   1.110       .  S
C1018      H1023   1.106       .  S
C1018      H1024   1.109       .  S
C1025      C1026   1.396       .  A
C1025      C1030   1.389       .  A
C1025      H1032   1.085       .  S
C1026      C1027   1.414       .  A
C1027      C1028   1.403       .  A
C1027      C1034   1.504       .  S
C1028      C1029   1.403       .  A
C1028      H1033   1.084       .  S
C1029      C1030   1.425       .  A
C1030      C1031   1.515       .  S
C1031      H1035   1.111       .  S
C1031      H1036   1.108       .  S
C1031      H1037   1.110       .  S
C1034      H1038   1.106       .  S
C1034      H1039   1.108       .  S
C1034      H1040   1.110       .  S
C1041      C1042   1.402       .  A
C1041      C1046   1.405       .  A
C1041      H1048   1.083       .  S
C1042      C1043   1.408   1_554  A
C1043      C1044   1.394       .  A
C1043      C1050   1.510       .  S
C1044      C1045   1.406   1_556  A
C1044      H1049   1.081       .  S
C1045      C1046   1.413       .  A
C1046      C1047   1.500       .  S
C1047      H1051   1.106       .  S
C1047      H1052   1.110       .  S
C1047      H1053   1.110       .  S
C1050      H1622   1.110       .  S
C1050      H1055   1.108   1_556  S
C1050      H1056   1.110       .  S
H1054      C1334   1.110       .  S
C1057      C1058   1.402       .  A
C1057      C1062   1.395       .  A
C1057      H1064   1.085       .  S
C1058      C1059   1.412       .  A
C1059      C1060   1.401       .  A
C1059      C1066   1.499       .  S
C1060      C1061   1.401       .  A
C1060      H1065   1.085       .  S
C1061      C1062   1.417       .  A
C1062      C1063   1.511       .  S
C1063      H1067   1.109       .  S
C1063      H1068   1.111       .  S
C1063      H1069   1.106       .  S
C1066      H1070   1.106       .  S
C1066      H1071   1.108       .  S
C1066      H1072   1.109       .  S
C1073      C1074   1.408       .  A
C1073      C1078   1.405       .  A
C1073      H1080   1.084       .  S
C1074      C1075   1.410       .  A
C1075      C1076   1.392       .  A
C1075      C1082   1.512       .  S
C1076      C1077   1.405       .  A
C1076      H1081   1.083       .  S
C1077      C1078   1.404       .  A
C1078      C1079   1.499       .  S
C1079      H1083   1.107       .  S
C1079      H1084   1.108       .  S
C1079      H1085   1.105       .  S
C1082      H1086   1.108       .  S
C1082      H1087   1.109       .  S
C1082      H1088   1.110       .  S
C1089      C1090   1.396       .  A
C1089      C1094   1.390       .  A
C1089      H1096   1.085       .  S
C1090      C1091   1.413       .  A
C1091      C1092   1.401       .  A
C1091      C1382   1.505       .  S
C1092      C1093   1.403       .  A
C1092      H1381   1.084       .  S
C1093      C1094   1.424       .  A
C1094      C1095   1.514       .  S
C1095      H1099   1.111       .  S
C1095      H1100   1.109       .  S
C1095      H1101   1.110       .  S
H1097      C1660   1.084       .  S
C1098      C1659   1.505   1_554  S
C1098      H1102   1.108   1_554  S
C1098      H1103   1.110       .  S
C1098      H1104   1.110       .  S
C1105      C1106   1.406       .  A
C1105      C1110   1.394       .  A
C1105      H1112   1.083   1_554  S
C1106      C1107   1.414       .  A
C1107      C1108   1.403       .  A
C1107      C1114   1.499       .  S
C1108      C1109   1.400       .  A
C1108      H1113   1.084       .  S
C1109      C1110   1.409       .  A
C1110      C1111   1.510   1_554  S
C1111      H1115   1.109       .  S
C1111      H1116   1.110       .  S
C1111      H1117   1.108   1_556  S
C1114      H1118   1.110       .  S
C1114      H1119   1.110       .  S
C1114      H1120   1.107       .  S
C1121      C1122   1.401       .  A
C1121      C1126   1.399       .  A
C1121      H1128   1.085       .  S
C1122      C1123   1.418       .  A
C1123      C1124   1.395       .  A
C1123      C1130   1.512       .  S
C1124      C1125   1.402       .  A
C1124      H1129   1.085       .  S
C1125      C1126   1.413       .  A
C1126      C1127   1.501       .  S
C1127      H1131   1.110       .  S
C1127      H1132   1.106       .  S
C1127      H1133   1.108       .  S
C1130      H1134   1.110       .  S
C1130      H1135   1.108       .  S
C1130      H1136   1.111       .  S
In1137     O1139   2.184       .  S
In1137     O1140   2.246       .  S
In1137     O1148   2.243       .  S
In1137     O1142   2.253       .  S
In1137     O1144   2.260       .  S
In1137     O1145   2.245       .  S
In1137     O1146   2.174       .  S
In1137     O1149   2.240       .  S
C1138      O1144   1.271       .  A
C1138      O1146   1.254       .  A
C1138      C1393   1.461       .  S
O1139      C1147   1.254       .  A
O1140      C1147   1.270       .  A
C1141      O1148   1.266       .  A
C1141      O1142   1.269       .  A
C1141      C1264   1.485       .  S
C1143      O1145   1.268       .  A
C1143      O1149   1.268       .  A
C1143      C1284   1.483       .  S
C1147      C1406   1.469       .  S
In1150     O1161   2.247       .  S
In1150     O1155   2.234       .  S
In1150     O1158   2.248       .  S
In1150     O1162   2.237       .  S
C1151      O1157   1.268       .  A
C1151      C1390   1.480       .  S
O1152      C1160   1.255       .  A
O1153      C1160   1.268   1_545  A
C1154      O1161   1.268       .  A
C1154      O1155   1.268       .  A
C1154      C1251   1.479       .  S
C1156      O1158   1.268       .  A
C1156      O1162   1.267       .  A
C1156      C1561   1.480       .  S
O1159      C1435   1.256       .  A
C1160      C1409   1.469       .  S
In1163     O1165   2.246       .  S
In1163     O1166   2.224       .  S
In1163     O1174   2.237       .  S
In1163     O1168   2.249       .  S
In1163     O1170   2.247       .  S
In1163     O1171   2.254       .  S
In1163     O1172   2.192       .  S
In1163     O1175   2.174       .  S
C1164      O1170   1.270       .  A
C1164      O1172   1.256       .  A
C1164      C1361   1.472       .  S
O1165      C1173   1.268       .  A
O1166      C1173   1.268       .  A
C1167      O1174   1.268       .  A
C1167      O1168   1.270       .  A
C1167      C1286   1.483       .  S
C1169      O1171   1.271       .  A
C1169      O1175   1.253       .  A
C1169      C1377   1.472       .  S
C1173      C1271   1.474       .  S
In1176     O2598   2.239   1_455  S
In1176     O1179   2.244   1_455  S
In1176     O2891   2.245   1_455  S
In1176     O1181   2.240   1_455  S
In1176     O1184   2.269       .  S
In1176     O1188   2.171       .  S
C1177      O1183   1.265       .  A
C1177      O1185   1.255       .  A
C1177      C1374   1.464       .  S
O1178     In3164   2.239       .  S
O1178      C1470   1.266       .  A
O1179      C2890   1.269       .  A
C1180      O1187   1.268       .  A
C1180      O2885   1.268       .  A
C1180      C2949   1.478       .  S
O1181      C2884   1.268       .  A
C1182      O1184   1.266       .  A
C1182      O1188   1.251       .  A
C1182      C1358   1.461       .  S
O1183     In1460   2.248       .  S
O1185     In1460   2.184       .  S
C1186      O2883   1.269       .  A
C1186      C2675   1.478       .  S
O1187     In2880   2.245       .  S
In1189     O1191   2.202       .  S
In1189     O1192   2.258       .  S
In1189     O1200   2.245       .  S
In1189     O1194   2.253       .  S
In1189     O1196   2.259       .  S
In1189     O1197   2.242       .  S
In1189     O1198   2.179       .  S
In1189     O1201   2.240       .  S
C1190      O1196   1.268       .  A
C1190      O1198   1.254       .  A
C1190      C1342   1.470       .  S
O1191      C1483   1.256       .  A
O1192      C1483   1.266       .  A
C1193      O1200   1.266       .  A
C1193      O1194   1.267       .  A
C1193      C1557   1.482       .  S
C1195      O1197   1.268       .  A
C1195      O1201   1.267       .  A
C1195      C1247   1.482       .  S
C1199      C1329   1.481       .  S
In1202     O1204   2.190       .  S
In1202     O1205   2.255       .  S
In1202     O1213   2.244       .  S
In1202     O1207   2.257       .  S
In1202     O1209   2.266       .  S
In1202     O1210   2.236       .  S
In1202     O1211   2.179       .  S
In1202     O1214   2.257       .  S
C1203      O1209   1.268       .  A
C1203      O1211   1.253       .  A
C1203      C1326   1.464       .  S
O1204      C1212   1.253       .  A
O1205      C1212   1.268       .  A
C1206      O1213   1.265       .  A
C1206      O1207   1.268       .  A
C1206      C1258   1.483       .  S
C1208      O1210   1.266       .  A
C1208      O1214   1.268       .  A
C1208      C1290   1.481       .  S
C1212      C1345   1.472       .  S
In1215     O1217   2.236       .  S
In1215     O1218   2.242       .  S
In1215     O1226   2.244       .  S
In1215     O1220   2.231       .  S
In1215     O1222   2.268       .  S
In1215     O1223   2.255       .  S
In1215     O1224   2.178       .  S
In1215     O1227   2.173       .  S
C1216      O1222   1.265       .  A
C1216      O1224   1.251       .  A
C1216      C1297   1.463       .  S
O1217      C1225   1.267       .  A
O1218      C1225   1.268       .  A
C1219      O1226   1.267       .  A
C1219      O1220   1.268       .  A
C1219      C1268   1.475       .  S
C1221      O1223   1.265       .  A
C1221      O1227   1.254       .  A
C1221      C1310   1.465       .  S
C1225      C1281   1.480       .  S
In1228     O2650   2.245       .  S
In1228     O1231   2.243       .  S
In1228     O2943   2.250       .  S
In1228     O1233   2.246       .  S
In1228     O1236   2.265       .  S
In1228     O1240   2.171       .  S
C1229      O1235   1.269       .  A
C1229      O1237   1.257       .  A
C1229      C1294   1.475       .  S
O1230     In3216   2.245   1_455  S
O1230      C1522   1.267       .  A
O1231      C2942   1.269       .  A
C1232      O1239   1.268       .  A
C1232      O2937   1.270       .  A
C1232      C2946   1.482       .  S
O1233      C2936   1.270       .  A
C1234      O1236   1.270       .  A
C1234      O1240   1.251       .  A
C1234      C1313   1.473       .  S
O1235     In1512   2.256       .  S
O1237     In1512   2.196       .  S
C1238      O2935   1.269       .  A
C1238      C2680   1.481       .  S
O1239     In2932   2.250   1_455  S
In1241     O2947   2.290       .  S
In1241     O2948   2.268       .  S
In1241     O2956   2.285       .  S
In1241     O2950   2.271       .  S
In1241     O1248   2.276       .  S
In1241     O1249   2.273       .  S
In1241     O1253   2.287       .  S
C1242      O1250   1.261       .  A
C1242      C2936   1.482       .  S
O1243     In2945   2.290       .  S
O1243      C1251   1.260       .  A
O1244     In2945   2.268       .  S
O1244      C1251   1.257       .  A
C1245      O1252   1.260       .  A
C1245      O1246   1.257       .  A
C1245      C2884   1.478       .  S
O1246     In2945   2.271   1_655  S
C1247      O1249   1.257       .  A
C1247      O1253   1.261       .  A
O1252     In2945   2.285   1_655  S
In1254     O2960   2.289       .  S
In1254     O2961   2.282       .  S
In1254     O1265   2.288       .  S
In1254     O1259   2.279       .  S
In1254     O1261   2.277       .  S
In1254     O1262   2.285       .  S
In1254     O2967   2.269       .  S
In1254     O1266   2.275       .  S
C1255      O2965   1.262       .  A
C1255      O1263   1.258       .  A
C1255      C3174   1.478       .  S
O1256     In2958   2.289       .  S
O1256      C1264   1.259       .  A
O1257     In2958   2.282       .  S
O1257      C1264   1.261       .  A
C1258      O1265   1.259       .  A
C1258      O1259   1.260       .  A
C1260      O1262   1.261       .  A
C1260      O1266   1.258       .  A
C1260      C3226   1.481       .  S
O1261      C2959   1.262       .  A
O1263     In2958   2.269   1_655  S
In1267     O1269   2.272       .  S
In1267     O1270   2.284       .  S
In1267     O1278   2.279       .  S
In1267     O1272   2.250       .  S
In1267     O1274   2.257       .  S
In1267     O1275   2.286       .  S
In1267     O1279   2.277       .  S
C1268      O1276   1.262       .  A
O1269      C1277   1.259       .  A
O1270      C1277   1.260       .  A
C1271      O1278   1.262       .  A
C1271      O1272   1.258       .  A
C1273      O1275   1.260       .  A
C1273      O1279   1.260       .  A
In1280     O1282   2.267       .  S
In1280     O1283   2.289       .  S
In1280     O1291   2.275       .  S
In1280     O1285   2.288       .  S
C1281      O1287   1.261       .  A
C1281      O1289   1.258       .  A
O1282      C1290   1.259       .  A
O1283      C1290   1.261       .  A
C1284      O1291   1.258       .  A
C1284      O1285   1.260       .  A
C1286      O1288   1.261       .  A
C1286      O1292   1.258       .  A
O1287     In1564   2.279       .  S
O1288     In1564   2.282       .  S
O1289     In1564   2.276       .  S
O1292     In1564   2.285       .  S
C1293      C1294   1.406       .  A
C1293      C1298   1.392       .  A
C1293      H1584   1.083       .  S
C1294      C1295   1.408       .  A
C1295      C1296   1.406       .  A
C1295      C1302   1.502       .  S
C1296      C1297   1.407       .  A
C1296      H1301   1.084       .  S
C1297      C1298   1.409       .  A
C1298      C1583   1.511       .  S
C1299      H1303   1.110       .  S
C1299      H1304   1.108       .  S
C1299      H1305   1.110       .  S
C1302      H1306   1.110       .  S
C1302      H1307   1.106       .  S
C1302      H1308   1.109       .  S
C1309      C1310   1.396       .  A
C1309      C1314   1.389       .  A
C1309      H1316   1.085       .  S
C1310      C1311   1.414       .  A
C1311      C1312   1.403       .  A
C1311      C1318   1.504       .  S
C1312      C1313   1.403       .  A
C1312      H1317   1.084       .  S
C1313      C1314   1.425       .  A
C1314      C1315   1.515       .  S
C1315      H1319   1.111       .  S
C1315      H1320   1.108       .  S
C1315      H1321   1.110       .  S
C1318      H1322   1.106       .  S
C1318      H1323   1.108       .  S
C1318      H1324   1.110       .  S
C1325      C1326   1.402       .  A
C1325      C1330   1.405       .  A
C1325      H1332   1.083       .  S
C1326      C1327   1.408       .  A
C1327      C1328   1.394       .  A
C1327      C1334   1.510       .  S
C1328      C1329   1.406       .  A
C1328      H1333   1.081       .  S
C1329      C1330   1.413       .  A
C1330      C1331   1.500       .  S
C1331      H1335   1.106       .  S
C1331      H1336   1.110       .  S
C1331      H1337   1.110       .  S
C1334      H1339   1.108       .  S
C1334      H1340   1.110       .  S
H1338      C1618   1.110       .  S
C1341      C1342   1.402       .  A
C1341      C1346   1.395       .  A
C1341      H1348   1.085       .  S
C1342      C1343   1.412       .  A
C1343      C1344   1.401       .  A
C1343      C1350   1.499       .  S
C1344      C1345   1.401       .  A
C1344      H1349   1.085       .  S
C1345      C1346   1.417       .  A
C1346      C1347   1.511       .  S
C1347      H1351   1.109       .  S
C1347      H1352   1.111       .  S
C1347      H1353   1.106       .  S
C1350      H1354   1.106       .  S
C1350      H1355   1.108       .  S
C1350      H1356   1.109       .  S
C1357      C1358   1.408       .  A
C1357      C1362   1.405       .  A
C1357      H1364   1.084       .  S
C1358      C1359   1.410       .  A
C1359      C1360   1.392       .  A
C1359      C1366   1.512       .  S
C1360      C1361   1.405       .  A
C1360      H1365   1.083       .  S
C1361      C1362   1.404       .  A
C1362      C1363   1.499       .  S
C1363      H1367   1.107       .  S
C1363      H1368   1.108       .  S
C1363      H1369   1.105       .  S
C1366      H1370   1.108       .  S
C1366      H1371   1.109       .  S
C1366      H1372   1.110       .  S
C1373      C1374   1.396       .  A
C1373      C1378   1.390       .  A
C1373      H1380   1.085       .  S
C1374      C1375   1.413       .  A
C1375      C1376   1.401       .  A
C1375      C1666   1.505       .  S
C1376      C1377   1.403       .  A
C1376      H1665   1.084       .  S
C1377      C1378   1.424       .  A
C1378      C1379   1.514       .  S
C1379      H1383   1.111       .  S
C1379      H1384   1.109       .  S
C1379      H1385   1.110       .  S
C1382      H1386   1.108       .  S
C1382      H1387   1.110       .  S
C1382      H1388   1.110       .  S
C1389      C1390   1.406       .  A
C1389      C1394   1.394       .  A
C1389      H1396   1.083       .  S
C1390      C1391   1.414       .  A
C1391      C1392   1.403       .  A
C1391      C1398   1.499       .  S
C1392      C1393   1.400       .  A
C1392      H1397   1.084       .  S
C1393      C1394   1.409       .  A
C1394      C1395   1.510       .  S
C1395      H1399   1.109       .  S
C1395      H1400   1.110       .  S
C1395      H1401   1.108       .  S
C1398      H1402   1.110       .  S
C1398      H1403   1.110       .  S
C1398      H1404   1.107       .  S
C1405      C1406   1.401       .  A
C1405      C1410   1.399       .  A
C1405      H1412   1.085       .  S
C1406      C1407   1.418       .  A
C1407      C1408   1.395       .  A
C1407      C1414   1.512       .  S
C1408      C1409   1.402       .  A
C1408      H1413   1.085       .  S
C1409      C1410   1.413       .  A
C1410      C1411   1.501       .  S
C1411      H1415   1.110       .  S
C1411      H1416   1.106       .  S
C1411      H1417   1.108       .  S
C1414      H1418   1.110       .  S
C1414      H1419   1.108       .  S
C1414      H1420   1.111       .  S
In1421     O1423   2.184       .  S
In1421     O1424   2.246       .  S
In1421     O1432   2.243       .  S
In1421     O1426   2.253       .  S
In1421     O1428   2.260       .  S
In1421     O1429   2.245       .  S
In1421     O1430   2.174       .  S
In1421     O1433   2.240       .  S
C1422      O1428   1.271       .  A
C1422      O1430   1.254       .  A
C1422      C1677   1.461       .  S
O1423      C1431   1.254       .  A
O1424      C1431   1.270       .  A
C1425      O1432   1.266       .  A
C1425      O1426   1.269       .  A
C1425      C1548   1.485       .  S
C1427      O1429   1.268       .  A
C1427      O1433   1.268       .  A
C1427      C1568   1.483       .  S
C1431      C1690   1.469       .  S
In1434     O1445   2.247       .  S
In1434     O1439   2.234       .  S
In1434     O1442   2.248       .  S
In1434     O1446   2.237   1_556  S
C1435      O1441   1.268       .  A
C1435      C1674   1.480       .  S
O1436      C1444   1.255       .  A
O1437      C1444   1.268   1_545  A
C1438      O1445   1.268       .  A
C1438      O1439   1.268       .  A
C1438      C1535   1.479       .  S
C1440      O1442   1.268   1_554  A
C1440      O1446   1.267       .  A
C1444      C1693   1.469       .  S
In1447     O1449   2.246       .  S
In1447     O1450   2.224       .  S
In1447     O1458   2.237       .  S
In1447     O1452   2.249       .  S
In1447     O1454   2.247       .  S
In1447     O1455   2.254       .  S
In1447     O1456   2.192       .  S
In1447     O1459   2.174       .  S
C1448      O1454   1.270       .  A
C1448      O1456   1.256       .  A
C1448      C1645   1.472       .  S
O1449      C1457   1.268       .  A
O1450      C1457   1.268       .  A
C1451      O1458   1.268       .  A
C1451      O1452   1.270       .  A
C1451      C1570   1.483       .  S
C1453      O1455   1.271       .  A
C1453      O1459   1.253       .  A
C1453      C1661   1.472       .  S
C1457      C1555   1.474       .  S
In1460     O2882   2.239   1_455  S
In1460     O1463   2.244   1_455  S
In1460     O3175   2.245   1_455  S
In1460     O1465   2.240   1_455  S
In1460     O1468   2.269       .  S
In1460     O1472   2.171       .  S
C1461      O1467   1.265   1_556  A
C1461      O1469   1.255   1_556  A
C1461      C1658   1.464       .  S
O1462     In2596   2.239   1_556  S
O1463      C3174   1.269       .  A
C1464      O1471   1.268       .  A
C1464      O3169   1.268       .  A
C1464      C3233   1.478       .  S
O1465      C3168   1.268       .  A
C1466      O1468   1.266       .  A
C1466      O1472   1.251       .  A
C1466      C1642   1.461       .  S
C1470      O3167   1.269       .  A
C1470      C2959   1.478       .  S
O1471     In3164   2.245       .  S
In1473     O1475   2.202       .  S
In1473     O1476   2.258   1_556  S
In1473     O1484   2.245   1_556  S
In1473     O1478   2.253       .  S
In1473     O1480   2.259       .  S
In1473     O1481   2.242       .  S
In1473     O1482   2.179       .  S
In1473     O1485   2.240       .  S
C1474      O1480   1.268       .  A
C1474      O1482   1.254       .  A
C1474      C1626   1.470       .  S
C1477      O1484   1.266       .  A
C1477      O1478   1.267   1_554  A
C1479      O1481   1.268       .  A
C1479      O1485   1.267       .  A
C1479      C1531   1.482       .  S
C1483      C1613   1.481       .  S
In1486     O1488   2.190       .  S
In1486     O1489   2.255       .  S
In1486     O1497   2.244       .  S
In1486     O1491   2.257       .  S
In1486     O1493   2.266       .  S
In1486     O1494   2.236       .  S
In1486     O1495   2.179       .  S
In1486     O1498   2.257       .  S
C1487      O1493   1.268       .  A
C1487      O1495   1.253       .  A
C1487      C1610   1.464       .  S
O1488      C1496   1.253       .  A
O1489      C1496   1.268       .  A
C1490      O1497   1.265       .  A
C1490      O1491   1.268       .  A
C1490      C1542   1.483       .  S
C1492      O1494   1.266       .  A
C1492      O1498   1.268       .  A
C1492      C1574   1.481       .  S
C1496      C1629   1.472       .  S
In1499     O1501   2.236       .  S
In1499     O1502   2.242       .  S
In1499     O1510   2.244       .  S
In1499     O1504   2.231       .  S
In1499     O1506   2.268       .  S
In1499     O1507   2.255       .  S
In1499     O1508   2.178       .  S
In1499     O1511   2.173       .  S
C1500      O1506   1.265       .  A
C1500      O1508   1.251       .  A
C1500      C1581   1.463       .  S
O1501      C1509   1.267       .  A
O1502      C1509   1.268       .  A
C1503      O1510   1.267       .  A
C1503      O1504   1.268       .  A
C1503      C1552   1.475       .  S
C1505      O1507   1.265       .  A
C1505      O1511   1.254       .  A
C1505      C1594   1.465       .  S
C1509      C1565   1.480       .  S
In1512     O2934   2.245       .  S
In1512     O1515   2.243       .  S
In1512     O3227   2.250       .  S
In1512     O1517   2.246       .  S
In1512     O1520   2.265       .  S
In1512     O1524   2.171       .  S
C1513      O1519   1.269       .  A
C1513      O1521   1.257   1_556  A
C1513      C1578   1.475       .  S
O1514     In2648   2.245   1_456  S
O1515      C3226   1.269       .  A
C1516      O1523   1.268       .  A
C1516      O3221   1.270       .  A
C1516      C3230   1.482       .  S
O1517      C3220   1.270       .  A
C1518      O1520   1.270       .  A
C1518      O1524   1.251       .  A
C1518      C1597   1.473       .  S
C1522      O3219   1.269       .  A
C1522      C2964   1.481       .  S
O1523     In3216   2.250   1_455  S
In1525     O3231   2.290       .  S
In1525     O3232   2.268       .  S
In1525     O3240   2.285       .  S
In1525     O3234   2.271       .  S
In1525     O1532   2.276       .  S
In1525     O1533   2.273       .  S
In1525     O1537   2.287       .  S
C1526      O1534   1.261       .  A
C1526      C3220   1.482       .  S
O1527     In3229   2.290       .  S
O1527      C1535   1.260       .  A
O1528     In3229   2.268       .  S
O1528      C1535   1.257       .  A
C1529      O1536   1.260       .  A
C1529      O1530   1.257       .  A
C1529      C3168   1.478       .  S
O1530     In3229   2.271   1_655  S
C1531      O1533   1.257       .  A
C1531      O1537   1.261       .  A
O1536     In3229   2.285   1_655  S
In1538     O3244   2.289       .  S
In1538     O3245   2.282       .  S
In1538     O1549   2.288       .  S
In1538     O1543   2.279       .  S
In1538     O1545   2.277       .  S
In1538     O1546   2.285       .  S
In1538     O3251   2.269       .  S
In1538     O1550   2.275       .  S
C1539      O3249   1.262       .  A
C1539      O1547   1.258       .  A
C1539      C2606   1.478   1_556  S
O1540     In3242   2.289       .  S
O1540      C1548   1.259       .  A
O1541     In3242   2.282       .  S
O1541      C1548   1.261       .  A
C1542      O1549   1.259       .  A
C1542      O1543   1.260       .  A
C1544      O1546   1.261       .  A
C1544      O1550   1.258       .  A
C1544      C2658   1.481   1_556  S
O1545      C3243   1.262       .  A
O1547     In3242   2.269   1_655  S
In1551     O1553   2.272       .  S
In1551     O1554   2.284       .  S
In1551     O1562   2.279       .  S
In1551     O1556   2.250       .  S
In1551     O1558   2.257       .  S
In1551     O1559   2.286       .  S
In1551     O1563   2.277       .  S
C1552      O1560   1.262       .  A
O1553      C1561   1.259       .  A
O1554      C1561   1.260       .  A
C1555      O1562   1.262       .  A
C1555      O1556   1.258       .  A
C1557      O1559   1.260       .  A
C1557      O1563   1.260       .  A
In1564     O1566   2.267       .  S
In1564     O1567   2.289       .  S
In1564     O1575   2.275       .  S
In1564     O1569   2.288       .  S
C1565      O1571   1.261   1_556  A
C1565      O1573   1.258       .  A
O1566      C1574   1.259       .  A
O1567      C1574   1.261       .  A
C1568      O1575   1.258       .  A
C1568      O1569   1.260       .  A
C1570      O1572   1.261   1_556  A
C1570      O1576   1.258       .  A
C1577      C1578   1.406       .  A
C1577      C1582   1.392       .  A
C1578      C1579   1.408       .  A
C1579      C1580   1.406       .  A
C1579      C1586   1.502       .  S
C1580      C1581   1.407       .  A
C1580      H1585   1.084       .  S
C1581      C1582   1.409       .  A
C1583      H1587   1.110       .  S
C1583      H1588   1.108       .  S
C1583      H1589   1.110       .  S
C1586      H1590   1.110       .  S
C1586      H1591   1.106       .  S
C1586      H1592   1.109       .  S
C1593      C1594   1.396       .  A
C1593      C1598   1.389       .  A
C1593      H1600   1.085       .  S
C1594      C1595   1.414       .  A
C1595      C1596   1.403       .  A
C1595      C1602   1.504       .  S
C1596      C1597   1.403       .  A
C1596      H1601   1.084       .  S
C1597      C1598   1.425       .  A
C1598      C1599   1.515       .  S
C1599      H1603   1.111       .  S
C1599      H1604   1.108       .  S
C1599      H1605   1.110       .  S
C1602      H1606   1.106       .  S
C1602      H1607   1.108       .  S
C1602      H1608   1.110       .  S
C1609      C1610   1.402       .  A
C1609      C1614   1.405       .  A
C1609      H1616   1.083       .  S
C1610      C1611   1.408       .  A
C1611      C1612   1.394       .  A
C1611      C1618   1.510       .  S
C1612      C1613   1.406       .  A
C1612      H1617   1.081       .  S
C1613      C1614   1.413       .  A
C1614      C1615   1.500       .  S
C1615      H1619   1.106       .  S
C1615      H1620   1.110       .  S
C1615      H1621   1.110       .  S
C1618      H1623   1.108       .  S
C1618      H1624   1.110       .  S
C1625      C1626   1.402       .  A
C1625      C1630   1.395       .  A
C1625      H1632   1.085       .  S
C1626      C1627   1.412       .  A
C1627      C1628   1.401       .  A
C1627      C1634   1.499       .  S
C1628      C1629   1.401       .  A
C1628      H1633   1.085       .  S
C1629      C1630   1.417       .  A
C1630      C1631   1.511       .  S
C1631      H1635   1.109       .  S
C1631      H1636   1.111       .  S
C1631      H1637   1.106       .  S
C1634      H1638   1.106       .  S
C1634      H1639   1.108       .  S
C1634      H1640   1.109       .  S
C1641      C1642   1.408       .  A
C1641      C1646   1.405       .  A
C1641      H1648   1.084       .  S
C1642      C1643   1.410       .  A
C1643      C1644   1.392       .  A
C1643      C1650   1.512       .  S
C1644      C1645   1.405       .  A
C1644      H1649   1.083       .  S
C1645      C1646   1.404       .  A
C1646      C1647   1.499       .  S
C1647      H1651   1.107       .  S
C1647      H1652   1.108       .  S
C1647      H1653   1.105       .  S
C1650      H1654   1.108       .  S
C1650      H1655   1.109       .  S
C1650      H1656   1.110       .  S
C1657      C1658   1.396       .  A
C1657      C1662   1.390       .  A
C1657      H1664   1.085       .  S
C1658      C1659   1.413       .  A
C1659      C1660   1.401       .  A
C1660      C1661   1.403       .  A
C1661      C1662   1.424       .  A
C1662      C1663   1.514       .  S
C1663      H1667   1.111       .  S
C1663      H1668   1.109       .  S
C1663      H1669   1.110       .  S
C1666      H1670   1.108       .  S
C1666      H1671   1.110       .  S
C1666      H1672   1.110       .  S
C1673      C1674   1.406       .  A
C1673      C1678   1.394       .  A
C1673      H1680   1.083       .  S
C1674      C1675   1.414       .  A
C1675      C1676   1.403       .  A
C1675      C1682   1.499       .  S
C1676      C1677   1.400       .  A
C1676      H1681   1.084       .  S
C1677      C1678   1.409       .  A
C1678      C1679   1.510       .  S
C1679      H1683   1.109       .  S
C1679      H1684   1.110       .  S
C1679      H1685   1.108       .  S
C1682      H1686   1.110       .  S
C1682      H1687   1.110       .  S
C1682      H1688   1.107       .  S
C1689      C1690   1.401       .  A
C1689      C1694   1.399       .  A
C1689      H1696   1.085       .  S
C1690      C1691   1.418       .  A
C1691      C1692   1.395       .  A
C1691      C1698   1.512       .  S
C1692      C1693   1.402       .  A
C1692      H1697   1.085       .  S
C1693      C1694   1.413       .  A
C1694      C1695   1.501       .  S
C1695      H1699   1.110       .  S
C1695      H1700   1.106       .  S
C1695      H1701   1.108       .  S
C1698      H1702   1.110       .  S
C1698      H1703   1.108       .  S
C1698      H1704   1.111       .  S
In1705     O1707   2.184       .  S
In1705     O1708   2.246       .  S
In1705     O1716   2.243       .  S
In1705     O1710   2.253       .  S
In1705     O1712   2.260       .  S
In1705     O1713   2.245       .  S
In1705     O1714   2.174       .  S
In1705     O1717   2.240       .  S
C1706      O1712   1.271       .  A
C1706      O1714   1.254       .  A
C1706      C1961   1.461       .  S
O1707      C1715   1.254       .  A
O1708      C1715   1.270       .  A
C1709      O1716   1.266       .  A
C1709      O1710   1.269       .  A
C1709      C1832   1.485       .  S
C1711      O1713   1.268       .  A
C1711      O1717   1.268       .  A
C1711      C1852   1.483       .  S
C1715      C1974   1.469       .  S
In1718     O2572   2.182   1_545  S
In1718     O2573   2.255       .  S
In1718     O1729   2.247       .  S
In1718     O1723   2.234       .  S
In1718     O2861   2.260   1_545  S
In1718     O1726   2.248       .  S
In1718     O2579   2.193   1_545  S
In1718     O1730   2.237       .  S
C1719      O1725   1.268       .  A
C1719      O2295   1.256   1_554  A
C1719      C1958   1.480       .  S
O1720     In2570   2.182       .  S
O1720      C1728   1.255       .  A
O1721     In2570   2.255       .  S
O1721      C1728   1.268       .  A
C1722      O1729   1.268       .  A
C1722      O1723   1.268       .  A
C1722      C1819   1.479       .  S
C1724      O1726   1.268       .  A
C1724      O1730   1.267       .  A
C1724      C2129   1.480       .  S
O1725     In3138   2.260   1_554  S
O1727     In2570   2.193       .  S
O1727      C2003   1.256       .  A
C1728      C1977   1.469       .  S
In1731     O1733   2.246       .  S
In1731     O1734   2.224       .  S
In1731     O1742   2.237       .  S
In1731     O1736   2.249       .  S
In1731     O1738   2.247       .  S
In1731     O1739   2.254       .  S
In1731     O1740   2.192       .  S
In1731     O1743   2.174       .  S
C1732      O1738   1.270       .  A
C1732      O1740   1.256       .  A
C1732      C1929   1.472       .  S
O1733      C1741   1.268       .  A
O1734      C1741   1.268       .  A
C1735      O1742   1.268       .  A
C1735      O1736   1.270       .  A
C1735      C1854   1.483       .  S
C1737      O1739   1.271       .  A
C1737      O1743   1.253       .  A
C1737      C1945   1.472       .  S
C1741      C1839   1.474       .  S
In1744     O1747   2.244       .  S
In1744     O1749   2.240       .  S
In1744     O2319   2.248       .  S
In1744     O1752   2.269       .  S
In1744     O2321   2.184       .  S
In1744     O1756   2.171       .  S
C1745      O1751   1.265       .  A
C1745      O1753   1.255       .  A
C1745      C1942   1.464       .  S
O1746      C2038   1.266       .  A
C1748      O1755   1.268       .  A
C1750      O1752   1.266       .  A
C1750      O1756   1.251       .  A
C1750      C1926   1.461       .  S
O1751     In2028   2.248       .  S
O1753     In2028   2.184       .  S
C1754      O2314   1.266   1_554  A
In1757     O1759   2.202       .  S
In1757     O1760   2.258       .  S
In1757     O1768   2.245       .  S
In1757     O1762   2.253       .  S
In1757     O1764   2.259       .  S
In1757     O1765   2.242       .  S
In1757     O1766   2.179       .  S
In1757     O1769   2.240       .  S
C1758      O1764   1.268       .  A
C1758      O1766   1.254       .  A
C1758      C1910   1.470       .  S
O1759      C2051   1.256       .  A
O1760      C2051   1.266       .  A
C1761      O1768   1.266       .  A
C1761      O1762   1.267       .  A
C1761      C2125   1.482       .  S
C1763      O1765   1.268       .  A
C1763      O1769   1.267       .  A
C1763      C1815   1.482       .  S
C1767      O2327   1.256   1_554  A
C1767      O2328   1.266       .  A
C1767      C1897   1.481       .  S
In1770     O1772   2.190       .  S
In1770     O1773   2.255       .  S
In1770     O1781   2.244       .  S
In1770     O1775   2.257       .  S
In1770     O1777   2.266       .  S
In1770     O1778   2.236       .  S
In1770     O1779   2.179       .  S
In1770     O1782   2.257       .  S
C1771      O1777   1.268       .  A
C1771      O1779   1.253       .  A
C1771      C1894   1.464       .  S
O1772      C1780   1.253       .  A
O1773      C1780   1.268       .  A
C1774      O1781   1.265       .  A
C1774      O1775   1.268       .  A
C1774      C1826   1.483       .  S
C1776      O1778   1.266       .  A
C1776      O1782   1.268       .  A
C1776      C1858   1.481       .  S
C1780      C1913   1.472       .  S
In1783     O1785   2.236       .  S
In1783     O1786   2.242       .  S
In1783     O1794   2.244       .  S
In1783     O1788   2.231       .  S
In1783     O1790   2.268       .  S
In1783     O1791   2.255       .  S
In1783     O1792   2.178       .  S
In1783     O1795   2.173       .  S
C1784      O1790   1.265       .  A
C1784      O1792   1.251       .  A
C1784      C1865   1.463       .  S
O1785      C1793   1.267       .  A
O1786      C1793   1.268       .  A
C1787      O1794   1.267       .  A
C1787      O1788   1.268       .  A
C1787      C1836   1.475       .  S
C1789      O1791   1.265       .  A
C1789      O1795   1.254       .  A
C1789      C1878   1.465       .  S
C1793      C1849   1.480       .  S
In1796     O1799   2.243   1_655  S
In1796     O1801   2.246   1_655  S
In1796     O2371   2.256   1_554  S
In1796     O1804   2.265       .  S
In1796     O2373   2.196       .  S
In1796     O1808   2.171       .  S
C1797      O1803   1.269       .  A
C1797      O1805   1.257       .  A
C1797      C1862   1.475       .  S
O1798      C2090   1.267       .  A
C1800      O1807   1.268       .  A
C1802      O1804   1.270       .  A
C1802      O1808   1.251       .  A
C1802      C1881   1.473       .  S
O1803     In2080   2.256       .  S
O1805     In2080   2.196       .  S
C1806      O2366   1.267   1_554  A
In1809     O1816   2.276       .  S
In1809     O1817   2.273   1_455  S
In1809     O2670   2.290   1_545  S
In1809     O1821   2.287   1_455  S
C1810      O2668   1.257       .  A
C1810      O1818   1.261       .  A
O1811      C1819   1.260       .  A
O1812      C1819   1.257       .  A
C1813      O1820   1.260       .  A
C1813      O1814   1.257       .  A
C1815      O1817   1.257       .  A
C1815      O1821   1.261       .  A
O1816      C2662   1.257   1_545  A
O1818     In2661   2.290       .  S
In1822     O1833   2.288   1_455  S
In1822     O1827   2.279   1_455  S
In1822     O1829   2.277   1_455  S
In1822     O1830   2.285       .  S
In1822     O1834   2.275       .  S
C1823      O1831   1.258       .  A
O1824      C1832   1.259       .  A
O1825      C1832   1.261       .  A
C1826      O1833   1.259       .  A
C1826      O1827   1.260       .  A
C1828      O1830   1.261       .  A
C1828      O1834   1.258       .  A
In1835     O1837   2.272       .  S
In1835     O1838   2.284       .  S
In1835     O1846   2.279       .  S
In1835     O1840   2.250       .  S
In1835     O1842   2.257       .  S
In1835     O1843   2.286       .  S
In1835     O2696   2.281   1_545  S
In1835     O1847   2.277       .  S
C1836      O2694   1.257       .  A
C1836      O1844   1.262       .  A
O1837      C1845   1.259       .  A
O1838      C1845   1.260       .  A
C1839      O1846   1.262       .  A
C1839      O1840   1.258       .  A
C1841      O1843   1.260       .  A
C1841      O1847   1.260       .  A
C1841      C2329   1.482       .  S
O1842      C2688   1.257   1_545  A
O1844     In2687   2.281       .  S
C1845      C2292   1.480       .  S
In1848     O1850   2.267       .  S
In1848     O1851   2.289       .  S
In1848     O1859   2.275       .  S
In1848     O1853   2.288       .  S
In1848     O2423   2.279       .  S
In1848     O2424   2.282       .  S
In1848     O2425   2.276   1_554  S
In1848     O2428   2.285   1_554  S
C1849      O1855   1.261       .  A
C1849      O1857   1.258       .  A
O1850      C1858   1.259       .  A
O1851      C1858   1.261       .  A
C1852      O1859   1.258       .  A
C1852      O1853   1.260       .  A
C1854      O1856   1.261       .  A
C1854      O1860   1.258       .  A
O1855     In2132   2.279       .  S
O1856     In2132   2.282       .  S
O1857     In2132   2.276       .  S
O1860     In2132   2.285       .  S
C1861      C1862   1.406       .  A
C1861      C1866   1.392       .  A
C1861      H2152   1.083       .  S
C1862      C1863   1.408       .  A
C1863      C1864   1.406       .  A
C1863      C1870   1.502       .  S
C1864      C1865   1.407       .  A
C1864      H1869   1.084       .  S
C1865      C1866   1.409       .  A
C1866      C2151   1.511       .  S
C1867      C2434   1.511   1_554  S
C1867      H1871   1.110       .  S
C1867      H1872   1.108   1_554  S
C1867      H1873   1.110       .  S
H1868      C2429   1.083   1_554  S
C1870      H1874   1.110       .  S
C1870      H1875   1.106       .  S
C1870      H1876   1.109       .  S
C1877      C1878   1.396       .  A
C1877      C1882   1.389       .  A
C1877      H1884   1.085       .  S
C1878      C1879   1.414       .  A
C1879      C1880   1.403       .  A
C1879      C1886   1.504       .  S
C1880      C1881   1.403       .  A
C1880      H1885   1.084       .  S
C1881      C1882   1.425       .  A
C1882      C1883   1.515       .  S
C1883      H1887   1.111       .  S
C1883      H1888   1.108       .  S
C1883      H1889   1.110       .  S
C1886      H1890   1.106       .  S
C1886      H1891   1.108       .  S
C1886      H1892   1.110       .  S
C1893      C1894   1.402       .  A
C1893      C1898   1.405       .  A
C1893      H1900   1.083       .  S
C1894      C1895   1.408   1_554  A
C1895      C1896   1.394       .  A
C1895      C1902   1.510       .  S
C1896      C1897   1.406   1_556  A
C1896      H1901   1.081       .  S
C1897      C1898   1.413       .  A
C1898      C1899   1.500       .  S
C1899      H1903   1.106       .  S
C1899      H1904   1.110       .  S
C1899      H1905   1.110       .  S
C1902      H2474   1.110       .  S
C1902      H1907   1.108   1_556  S
C1902      H1908   1.110       .  S
H1906      C2186   1.110       .  S
C1909      C1910   1.402       .  A
C1909      C1914   1.395       .  A
C1909      H1916   1.085       .  S
C1910      C1911   1.412       .  A
C1911      C1912   1.401       .  A
C1911      C1918   1.499       .  S
C1912      C1913   1.401       .  A
C1912      H1917   1.085       .  S
C1913      C1914   1.417       .  A
C1914      C1915   1.511       .  S
C1915      H1919   1.109       .  S
C1915      H1920   1.111       .  S
C1915      H1921   1.106       .  S
C1918      H1922   1.106       .  S
C1918      H1923   1.108       .  S
C1918      H1924   1.109       .  S
C1925      C1926   1.408       .  A
C1925      C1930   1.405       .  A
C1925      H1932   1.084       .  S
C1926      C1927   1.410       .  A
C1927      C1928   1.392       .  A
C1927      C1934   1.512       .  S
C1928      C1929   1.405       .  A
C1928      H1933   1.083       .  S
C1929      C1930   1.404       .  A
C1930      C1931   1.499       .  S
C1931      H1935   1.107       .  S
C1931      H1936   1.108       .  S
C1931      H1937   1.105       .  S
C1934      H1938   1.108       .  S
C1934      H1939   1.109       .  S
C1934      H1940   1.110       .  S
C1941      C1942   1.396       .  A
C1941      C1946   1.390       .  A
C1941      H1948   1.085       .  S
C1942      C1943   1.413       .  A
C1943      C1944   1.401       .  A
C1943      C2234   1.505       .  S
C1944      C1945   1.403       .  A
C1944      H2233   1.084       .  S
C1945      C1946   1.424       .  A
C1946      C1947   1.514       .  S
C1947      H1951   1.111       .  S
C1947      H1952   1.109       .  S
C1947      H1953   1.110       .  S
H1949      C2512   1.084       .  S
C1950      C2511   1.505   1_554  S
C1950      H1954   1.108   1_554  S
C1950      H1955   1.110       .  S
C1950      H1956   1.110       .  S
C1957      C1958   1.406       .  A
C1957      C1962   1.394       .  A
C1957      H1964   1.083   1_554  S
C1958      C1959   1.414       .  A
C1959      C1960   1.403       .  A
C1959      C1966   1.499       .  S
C1960      C1961   1.400       .  A
C1960      H1965   1.084       .  S
C1961      C1962   1.409       .  A
C1962      C1963   1.510   1_554  S
C1963      H1967   1.109       .  S
C1963      H1968   1.110       .  S
C1963      H1969   1.108   1_556  S
C1966      H1970   1.110       .  S
C1966      H1971   1.110       .  S
C1966      H1972   1.107       .  S
C1973      C1974   1.401       .  A
C1973      C1978   1.399       .  A
C1973      H1980   1.085       .  S
C1974      C1975   1.418       .  A
C1975      C1976   1.395       .  A
C1975      C1982   1.512       .  S
C1976      C1977   1.402       .  A
C1976      H1981   1.085       .  S
C1977      C1978   1.413       .  A
C1978      C1979   1.501       .  S
C1979      H1983   1.110       .  S
C1979      H1984   1.106       .  S
C1979      H1985   1.108       .  S
C1982      H1986   1.110       .  S
C1982      H1987   1.108       .  S
C1982      H1988   1.111       .  S
In1989     O1991   2.184       .  S
In1989     O1992   2.246       .  S
In1989     O2000   2.243       .  S
In1989     O1994   2.253       .  S
In1989     O1996   2.260       .  S
In1989     O1997   2.245       .  S
In1989     O1998   2.174       .  S
In1989     O2001   2.240       .  S
C1990      O1996   1.271       .  A
C1990      O1998   1.254       .  A
C1990      C2245   1.461       .  S
O1991      C1999   1.254       .  A
O1992      C1999   1.270       .  A
C1993      O2000   1.266       .  A
C1993      O1994   1.269       .  A
C1993      C2116   1.485       .  S
C1995      O1997   1.268       .  A
C1995      O2001   1.268       .  A
C1995      C2136   1.483       .  S
C1999      C2258   1.469       .  S
In2002     O2856   2.182   1_545  S
In2002     O2857   2.255       .  S
In2002     O2013   2.247       .  S
In2002     O2007   2.234       .  S
In2002     O3145   2.260   1_545  S
In2002     O2010   2.248       .  S
In2002     O2863   2.193   1_545  S
In2002     O2014   2.237       .  S
C2003      O2009   1.268       .  A
C2003      C2242   1.480       .  S
O2004     In2854   2.182       .  S
O2004      C2012   1.255       .  A
O2005     In2854   2.255       .  S
O2005      C2012   1.268       .  A
C2006      O2013   1.268       .  A
C2006      O2007   1.268       .  A
C2006      C2103   1.479       .  S
C2008      O2010   1.268       .  A
C2008      O2014   1.267       .  A
C2008      C2413   1.480       .  S
O2009     In2570   2.260       .  S
O2011     In2854   2.193       .  S
O2011      C2287   1.256       .  A
C2012      C2261   1.469       .  S
In2015     O2017   2.246       .  S
In2015     O2018   2.224       .  S
In2015     O2026   2.237       .  S
In2015     O2020   2.249       .  S
In2015     O2022   2.247       .  S
In2015     O2023   2.254       .  S
In2015     O2024   2.192       .  S
In2015     O2027   2.174       .  S
C2016      O2022   1.270       .  A
C2016      O2024   1.256       .  A
C2016      C2213   1.472       .  S
O2017      C2025   1.268       .  A
O2018      C2025   1.268       .  A
C2019      O2026   1.268       .  A
C2019      O2020   1.270       .  A
C2019      C2138   1.483       .  S
C2021      O2023   1.271       .  A
C2021      O2027   1.253       .  A
C2021      C2229   1.472       .  S
C2025      C2123   1.474       .  S
In2028     O2031   2.244       .  S
In2028     O2033   2.240       .  S
In2028     O2036   2.269       .  S
In2028     O2040   2.171       .  S
C2029      O2035   1.265       .  A
C2029      O2037   1.255       .  A
C2029      C2226   1.464       .  S
O2030      C2322   1.266       .  A
C2032      O2039   1.268       .  A
C2034      O2036   1.266       .  A
C2034      O2040   1.251       .  A
C2034      C2210   1.461       .  S
O2035     In2312   2.248       .  S
O2037     In2312   2.184       .  S
In2041     O2043   2.202       .  S
In2041     O2044   2.258       .  S
In2041     O2052   2.245       .  S
In2041     O2046   2.253       .  S
In2041     O2048   2.259       .  S
In2041     O2049   2.242       .  S
In2041     O2050   2.179       .  S
In2041     O2053   2.240       .  S
C2042      O2048   1.268       .  A
C2042      O2050   1.254       .  A
C2042      C2194   1.470       .  S
O2043      C2335   1.256       .  A
O2044      C2335   1.266       .  A
C2045      O2052   1.266       .  A
C2045      O2046   1.267       .  A
C2045      C2409   1.482       .  S
C2047      O2049   1.268       .  A
C2047      O2053   1.267       .  A
C2047      C2099   1.482       .  S
C2051      C2181   1.481       .  S
In2054     O2056   2.190       .  S
In2054     O2057   2.255       .  S
In2054     O2065   2.244       .  S
In2054     O2059   2.257       .  S
In2054     O2061   2.266       .  S
In2054     O2062   2.236       .  S
In2054     O2063   2.179       .  S
In2054     O2066   2.257       .  S
C2055      O2061   1.268       .  A
C2055      O2063   1.253       .  A
C2055      C2178   1.464       .  S
O2056      C2064   1.253       .  A
O2057      C2064   1.268       .  A
C2058      O2065   1.265       .  A
C2058      O2059   1.268       .  A
C2058      C2110   1.483       .  S
C2060      O2062   1.266       .  A
C2060      O2066   1.268       .  A
C2060      C2142   1.481       .  S
C2064      C2197   1.472       .  S
In2067     O2069   2.236       .  S
In2067     O2070   2.242       .  S
In2067     O2078   2.244       .  S
In2067     O2072   2.231       .  S
In2067     O2074   2.268       .  S
In2067     O2075   2.255       .  S
In2067     O2076   2.178       .  S
In2067     O2079   2.173       .  S
C2068      O2074   1.265       .  A
C2068      O2076   1.251       .  A
C2068      C2149   1.463       .  S
O2069      C2077   1.267       .  A
O2070      C2077   1.268       .  A
C2071      O2078   1.267       .  A
C2071      O2072   1.268       .  A
C2071      C2120   1.475       .  S
C2073      O2075   1.265       .  A
C2073      O2079   1.254       .  A
C2073      C2162   1.465       .  S
C2077      C2133   1.480       .  S
In2080     O2083   2.243   1_655  S
In2080     O2085   2.246   1_655  S
In2080     O2088   2.265       .  S
In2080     O2092   2.171       .  S
C2081      O2087   1.269       .  A
C2081      O2089   1.257       .  A
C2081      C2146   1.475       .  S
O2082      C2374   1.267       .  A
C2084      O2091   1.268       .  A
C2086      O2088   1.270       .  A
C2086      O2092   1.251       .  A
C2086      C2165   1.473       .  S
O2087     In2364   2.256       .  S
O2089     In2364   2.196       .  S
In2093     O2100   2.276       .  S
In2093     O2101   2.273   1_455  S
In2093     O2954   2.290   1_545  S
In2093     O2105   2.287   1_455  S
C2094      O2952   1.257       .  A
C2094      O2102   1.261       .  A
O2095      C2103   1.260       .  A
O2096      C2103   1.257       .  A
C2097      O2104   1.260       .  A
C2097      O2098   1.257       .  A
C2099      O2101   1.257       .  A
C2099      O2105   1.261       .  A
O2100      C2946   1.257   1_545  A
O2102     In2945   2.290       .  S
In2106     O2117   2.288   1_455  S
In2106     O2111   2.279   1_455  S
In2106     O2113   2.277   1_455  S
In2106     O2114   2.285       .  S
In2106     O2118   2.275       .  S
C2107      O2115   1.258       .  A
O2108      C2116   1.259       .  A
O2109      C2116   1.261       .  A
C2110      O2117   1.259       .  A
C2110      O2111   1.260       .  A
C2112      O2114   1.261       .  A
C2112      O2118   1.258       .  A
In2119     O2121   2.272       .  S
In2119     O2122   2.284       .  S
In2119     O2130   2.279       .  S
In2119     O2124   2.250       .  S
In2119     O2126   2.257       .  S
In2119     O2127   2.286       .  S
In2119     O2980   2.281   1_545  S
In2119     O2131   2.277       .  S
C2120      O2978   1.257       .  A
C2120      O2128   1.262       .  A
O2121      C2129   1.259       .  A
O2122      C2129   1.260       .  A
C2123      O2130   1.262       .  A
C2123      O2124   1.258       .  A
C2125      O2127   1.260       .  A
C2125      O2131   1.260       .  A
O2126      C2972   1.257   1_545  A
O2128     In2971   2.281       .  S
In2132     O2134   2.267       .  S
In2132     O2135   2.289       .  S
In2132     O2143   2.275       .  S
In2132     O2137   2.288       .  S
C2133      O2139   1.261       .  A
C2133      O2141   1.258       .  A
O2134      C2142   1.259       .  A
O2135      C2142   1.261       .  A
C2136      O2143   1.258       .  A
C2136      O2137   1.260       .  A
C2138      O2140   1.261       .  A
C2138      O2144   1.258       .  A
O2139     In2416   2.279       .  S
O2140     In2416   2.282       .  S
O2141     In2416   2.276       .  S
O2144     In2416   2.285       .  S
C2145      C2146   1.406       .  A
C2145      C2150   1.392       .  A
C2145      H2436   1.083       .  S
C2146      C2147   1.408       .  A
C2147      C2148   1.406       .  A
C2147      C2154   1.502       .  S
C2148      C2149   1.407       .  A
C2148      H2153   1.084       .  S
C2149      C2150   1.409       .  A
C2150      C2435   1.511       .  S
C2151      H2155   1.110       .  S
C2151      H2156   1.108       .  S
C2151      H2157   1.110       .  S
C2154      H2158   1.110       .  S
C2154      H2159   1.106       .  S
C2154      H2160   1.109       .  S
C2161      C2162   1.396       .  A
C2161      C2166   1.389       .  A
C2161      H2168   1.085       .  S
C2162      C2163   1.414       .  A
C2163      C2164   1.403       .  A
C2163      C2170   1.504       .  S
C2164      C2165   1.403       .  A
C2164      H2169   1.084       .  S
C2165      C2166   1.425       .  A
C2166      C2167   1.515       .  S
C2167      H2171   1.111       .  S
C2167      H2172   1.108       .  S
C2167      H2173   1.110       .  S
C2170      H2174   1.106       .  S
C2170      H2175   1.108       .  S
C2170      H2176   1.110       .  S
C2177      C2178   1.402       .  A
C2177      C2182   1.405       .  A
C2177      H2184   1.083       .  S
C2178      C2179   1.408       .  A
C2179      C2180   1.394       .  A
C2179      C2186   1.510       .  S
C2180      C2181   1.406       .  A
C2180      H2185   1.081       .  S
C2181      C2182   1.413       .  A
C2182      C2183   1.500       .  S
C2183      H2187   1.106       .  S
C2183      H2188   1.110       .  S
C2183      H2189   1.110       .  S
C2186      H2191   1.108       .  S
C2186      H2192   1.110       .  S
H2190      C2470   1.110       .  S
C2193      C2194   1.402       .  A
C2193      C2198   1.395       .  A
C2193      H2200   1.085       .  S
C2194      C2195   1.412       .  A
C2195      C2196   1.401       .  A
C2195      C2202   1.499       .  S
C2196      C2197   1.401       .  A
C2196      H2201   1.085       .  S
C2197      C2198   1.417       .  A
C2198      C2199   1.511       .  S
C2199      H2203   1.109       .  S
C2199      H2204   1.111       .  S
C2199      H2205   1.106       .  S
C2202      H2206   1.106       .  S
C2202      H2207   1.108       .  S
C2202      H2208   1.109       .  S
C2209      C2210   1.408       .  A
C2209      C2214   1.405       .  A
C2209      H2216   1.084       .  S
C2210      C2211   1.410       .  A
C2211      C2212   1.392       .  A
C2211      C2218   1.512       .  S
C2212      C2213   1.405       .  A
C2212      H2217   1.083       .  S
C2213      C2214   1.404       .  A
C2214      C2215   1.499       .  S
C2215      H2219   1.107       .  S
C2215      H2220   1.108       .  S
C2215      H2221   1.105       .  S
C2218      H2222   1.108       .  S
C2218      H2223   1.109       .  S
C2218      H2224   1.110       .  S
C2225      C2226   1.396       .  A
C2225      C2230   1.390       .  A
C2225      H2232   1.085       .  S
C2226      C2227   1.413       .  A
C2227      C2228   1.401       .  A
C2227      C2518   1.505       .  S
C2228      C2229   1.403       .  A
C2228      H2517   1.084       .  S
C2229      C2230   1.424       .  A
C2230      C2231   1.514       .  S
C2231      H2235   1.111       .  S
C2231      H2236   1.109       .  S
C2231      H2237   1.110       .  S
C2234      H2238   1.108       .  S
C2234      H2239   1.110       .  S
C2234      H2240   1.110       .  S
C2241      C2242   1.406       .  A
C2241      C2246   1.394       .  A
C2241      H2248   1.083       .  S
C2242      C2243   1.414       .  A
C2243      C2244   1.403       .  A
C2243      C2250   1.499       .  S
C2244      C2245   1.400       .  A
C2244      H2249   1.084       .  S
C2245      C2246   1.409       .  A
C2246      C2247   1.510       .  S
C2247      H2251   1.109       .  S
C2247      H2252   1.110       .  S
C2247      H2253   1.108       .  S
C2250      H2254   1.110       .  S
C2250      H2255   1.110       .  S
C2250      H2256   1.107       .  S
C2257      C2258   1.401       .  A
C2257      C2262   1.399       .  A
C2257      H2264   1.085       .  S
C2258      C2259   1.418       .  A
C2259      C2260   1.395       .  A
C2259      C2266   1.512       .  S
C2260      C2261   1.402       .  A
C2260      H2265   1.085       .  S
C2261      C2262   1.413       .  A
C2262      C2263   1.501       .  S
C2263      H2267   1.110       .  S
C2263      H2268   1.106       .  S
C2263      H2269   1.108       .  S
C2266      H2270   1.110       .  S
C2266      H2271   1.108       .  S
C2266      H2272   1.111       .  S
In2273     O2275   2.184       .  S
In2273     O2276   2.246       .  S
In2273     O2284   2.243       .  S
In2273     O2278   2.253       .  S
In2273     O2280   2.260       .  S
In2273     O2281   2.245       .  S
In2273     O2282   2.174       .  S
In2273     O2285   2.240       .  S
C2274      O2280   1.271       .  A
C2274      O2282   1.254       .  A
C2274      C2529   1.461       .  S
O2275      C2283   1.254       .  A
O2276      C2283   1.270       .  A
C2277      O2284   1.266       .  A
C2277      O2278   1.269       .  A
C2277      C2400   1.485       .  S
C2279      O2281   1.268       .  A
C2279      O2285   1.268       .  A
C2279      C2420   1.483       .  S
C2283      C2542   1.469       .  S
In2286     O3140   2.182   1_545  S
In2286     O3141   2.255       .  S
In2286     O2297   2.247       .  S
In2286     O2291   2.234       .  S
In2286     O2577   2.260   1_546  S
In2286     O2294   2.248       .  S
In2286     O3147   2.193   1_545  S
In2286     O2298   2.237   1_556  S
C2287      O2293   1.268       .  A
C2287      C2526   1.480       .  S
O2288     In3138   2.182       .  S
O2288      C2296   1.255       .  A
O2289     In3138   2.255       .  S
O2289      C2296   1.268       .  A
C2290      O2297   1.268       .  A
C2290      O2291   1.268       .  A
C2290      C2387   1.479       .  S
C2292      O2294   1.268   1_554  A
C2292      O2298   1.267       .  A
O2293     In2854   2.260       .  S
O2295     In3138   2.193       .  S
C2296      C2545   1.469       .  S
In2299     O2301   2.246       .  S
In2299     O2302   2.224       .  S
In2299     O2310   2.237       .  S
In2299     O2304   2.249       .  S
In2299     O2306   2.247       .  S
In2299     O2307   2.254       .  S
In2299     O2308   2.192       .  S
In2299     O2311   2.174       .  S
C2300      O2306   1.270       .  A
C2300      O2308   1.256       .  A
C2300      C2497   1.472       .  S
O2301      C2309   1.268       .  A
O2302      C2309   1.268       .  A
C2303      O2310   1.268       .  A
C2303      O2304   1.270       .  A
C2303      C2422   1.483       .  S
C2305      O2307   1.271       .  A
C2305      O2311   1.253       .  A
C2305      C2513   1.472       .  S
C2309      C2407   1.474       .  S
In2312     O2315   2.244       .  S
In2312     O2317   2.240       .  S
In2312     O2320   2.269       .  S
In2312     O2324   2.171       .  S
C2313      O2319   1.265   1_556  A
C2313      O2321   1.255   1_556  A
C2313      C2510   1.464       .  S
C2316      O2323   1.268       .  A
C2318      O2320   1.266       .  A
C2318      O2324   1.251       .  A
C2318      C2494   1.461       .  S
In2325     O2327   2.202       .  S
In2325     O2328   2.258   1_556  S
In2325     O2336   2.245   1_556  S
In2325     O2330   2.253       .  S
In2325     O2332   2.259       .  S
In2325     O2333   2.242       .  S
In2325     O2334   2.179       .  S
In2325     O2337   2.240       .  S
C2326      O2332   1.268       .  A
C2326      O2334   1.254       .  A
C2326      C2478   1.470       .  S
C2329      O2336   1.266       .  A
C2329      O2330   1.267   1_554  A
C2331      O2333   1.268       .  A
C2331      O2337   1.267       .  A
C2331      C2383   1.482       .  S
C2335      C2465   1.481       .  S
In2338     O2340   2.190       .  S
In2338     O2341   2.255       .  S
In2338     O2349   2.244       .  S
In2338     O2343   2.257       .  S
In2338     O2345   2.266       .  S
In2338     O2346   2.236       .  S
In2338     O2347   2.179       .  S
In2338     O2350   2.257       .  S
C2339      O2345   1.268       .  A
C2339      O2347   1.253       .  A
C2339      C2462   1.464       .  S
O2340      C2348   1.253       .  A
O2341      C2348   1.268       .  A
C2342      O2349   1.265       .  A
C2342      O2343   1.268       .  A
C2342      C2394   1.483       .  S
C2344      O2346   1.266       .  A
C2344      O2350   1.268       .  A
C2344      C2426   1.481       .  S
C2348      C2481   1.472       .  S
In2351     O2353   2.236       .  S
In2351     O2354   2.242       .  S
In2351     O2362   2.244       .  S
In2351     O2356   2.231       .  S
In2351     O2358   2.268       .  S
In2351     O2359   2.255       .  S
In2351     O2360   2.178       .  S
In2351     O2363   2.173       .  S
C2352      O2358   1.265       .  A
C2352      O2360   1.251       .  A
C2352      C2433   1.463       .  S
O2353      C2361   1.267       .  A
O2354      C2361   1.268       .  A
C2355      O2362   1.267       .  A
C2355      O2356   1.268       .  A
C2355      C2404   1.475       .  S
C2357      O2359   1.265       .  A
C2357      O2363   1.254       .  A
C2357      C2446   1.465       .  S
C2361      C2417   1.480       .  S
In2364     O2367   2.243   1_655  S
In2364     O2369   2.246   1_655  S
In2364     O2372   2.265       .  S
In2364     O2376   2.171       .  S
C2365      O2371   1.269       .  A
C2365      O2373   1.257   1_556  A
C2365      C2430   1.475       .  S
C2368      O2375   1.268       .  A
C2370      O2372   1.270       .  A
C2370      O2376   1.251       .  A
C2370      C2449   1.473       .  S
In2377     O2384   2.276       .  S
In2377     O2385   2.273   1_455  S
In2377     O3238   2.290   1_545  S
In2377     O2389   2.287   1_455  S
C2378      O3236   1.257       .  A
C2378      O2386   1.261       .  A
O2379      C2387   1.260       .  A
O2380      C2387   1.257       .  A
C2381      O2388   1.260       .  A
C2381      O2382   1.257       .  A
C2383      O2385   1.257       .  A
C2383      O2389   1.261       .  A
O2384      C3230   1.257   1_545  A
O2386     In3229   2.290       .  S
In2390     O2401   2.288   1_455  S
In2390     O2395   2.279   1_455  S
In2390     O2397   2.277   1_455  S
In2390     O2398   2.285       .  S
In2390     O2402   2.275       .  S
C2391      O2399   1.258       .  A
O2392      C2400   1.259       .  A
O2393      C2400   1.261       .  A
C2394      O2401   1.259       .  A
C2394      O2395   1.260       .  A
C2396      O2398   1.261       .  A
C2396      O2402   1.258       .  A
In2403     O2405   2.272       .  S
In2403     O2406   2.284       .  S
In2403     O2414   2.279       .  S
In2403     O2408   2.250       .  S
In2403     O2410   2.257       .  S
In2403     O2411   2.286       .  S
In2403     O3264   2.281   1_545  S
In2403     O2415   2.277       .  S
C2404      O3262   1.257       .  A
C2404      O2412   1.262       .  A
O2405      C2413   1.259       .  A
O2406      C2413   1.260       .  A
C2407      O2414   1.262       .  A
C2407      O2408   1.258       .  A
C2409      O2411   1.260       .  A
C2409      O2415   1.260       .  A
O2410      C3256   1.257   1_545  A
O2412     In3255   2.281       .  S
In2416     O2418   2.267       .  S
In2416     O2419   2.289       .  S
In2416     O2427   2.275       .  S
In2416     O2421   2.288       .  S
C2417      O2423   1.261   1_556  A
C2417      O2425   1.258       .  A
O2418      C2426   1.259       .  A
O2419      C2426   1.261       .  A
C2420      O2427   1.258       .  A
C2420      O2421   1.260       .  A
C2422      O2424   1.261   1_556  A
C2422      O2428   1.258       .  A
C2429      C2430   1.406       .  A
C2429      C2434   1.392       .  A
C2430      C2431   1.408       .  A
C2431      C2432   1.406       .  A
C2431      C2438   1.502       .  S
C2432      C2433   1.407       .  A
C2432      H2437   1.084       .  S
C2433      C2434   1.409       .  A
C2435      H2439   1.110       .  S
C2435      H2440   1.108       .  S
C2435      H2441   1.110       .  S
C2438      H2442   1.110       .  S
C2438      H2443   1.106       .  S
C2438      H2444   1.109       .  S
C2445      C2446   1.396       .  A
C2445      C2450   1.389       .  A
C2445      H2452   1.085       .  S
C2446      C2447   1.414       .  A
C2447      C2448   1.403       .  A
C2447      C2454   1.504       .  S
C2448      C2449   1.403       .  A
C2448      H2453   1.084       .  S
C2449      C2450   1.425       .  A
C2450      C2451   1.515       .  S
C2451      H2455   1.111       .  S
C2451      H2456   1.108       .  S
C2451      H2457   1.110       .  S
C2454      H2458   1.106       .  S
C2454      H2459   1.108       .  S
C2454      H2460   1.110       .  S
C2461      C2462   1.402       .  A
C2461      C2466   1.405       .  A
C2461      H2468   1.083       .  S
C2462      C2463   1.408       .  A
C2463      C2464   1.394       .  A
C2463      C2470   1.510       .  S
C2464      C2465   1.406       .  A
C2464      H2469   1.081       .  S
C2465      C2466   1.413       .  A
C2466      C2467   1.500       .  S
C2467      H2471   1.106       .  S
C2467      H2472   1.110       .  S
C2467      H2473   1.110       .  S
C2470      H2475   1.108       .  S
C2470      H2476   1.110       .  S
C2477      C2478   1.402       .  A
C2477      C2482   1.395       .  A
C2477      H2484   1.085       .  S
C2478      C2479   1.412       .  A
C2479      C2480   1.401       .  A
C2479      C2486   1.499       .  S
C2480      C2481   1.401       .  A
C2480      H2485   1.085       .  S
C2481      C2482   1.417       .  A
C2482      C2483   1.511       .  S
C2483      H2487   1.109       .  S
C2483      H2488   1.111       .  S
C2483      H2489   1.106       .  S
C2486      H2490   1.106       .  S
C2486      H2491   1.108       .  S
C2486      H2492   1.109       .  S
C2493      C2494   1.408       .  A
C2493      C2498   1.405       .  A
C2493      H2500   1.084       .  S
C2494      C2495   1.410       .  A
C2495      C2496   1.392       .  A
C2495      C2502   1.512       .  S
C2496      C2497   1.405       .  A
C2496      H2501   1.083       .  S
C2497      C2498   1.404       .  A
C2498      C2499   1.499       .  S
C2499      H2503   1.107       .  S
C2499      H2504   1.108       .  S
C2499      H2505   1.105       .  S
C2502      H2506   1.108       .  S
C2502      H2507   1.109       .  S
C2502      H2508   1.110       .  S
C2509      C2510   1.396       .  A
C2509      C2514   1.390       .  A
C2509      H2516   1.085       .  S
C2510      C2511   1.413       .  A
C2511      C2512   1.401       .  A
C2512      C2513   1.403       .  A
C2513      C2514   1.424       .  A
C2514      C2515   1.514       .  S
C2515      H2519   1.111       .  S
C2515      H2520   1.109       .  S
C2515      H2521   1.110       .  S
C2518      H2522   1.108       .  S
C2518      H2523   1.110       .  S
C2518      H2524   1.110       .  S
C2525      C2526   1.406       .  A
C2525      C2530   1.394       .  A
C2525      H2532   1.083       .  S
C2526      C2527   1.414       .  A
C2527      C2528   1.403       .  A
C2527      C2534   1.499       .  S
C2528      C2529   1.400       .  A
C2528      H2533   1.084       .  S
C2529      C2530   1.409       .  A
C2530      C2531   1.510       .  S
C2531      H2535   1.109       .  S
C2531      H2536   1.110       .  S
C2531      H2537   1.108       .  S
C2534      H2538   1.110       .  S
C2534      H2539   1.110       .  S
C2534      H2540   1.107       .  S
C2541      C2542   1.401       .  A
C2541      C2546   1.399       .  A
C2541      H2548   1.085       .  S
C2542      C2543   1.418       .  A
C2543      C2544   1.395       .  A
C2543      C2550   1.512       .  S
C2544      C2545   1.402       .  A
C2544      H2549   1.085       .  S
C2545      C2546   1.413       .  A
C2546      C2547   1.501       .  S
C2547      H2551   1.110       .  S
C2547      H2552   1.106       .  S
C2547      H2553   1.108       .  S
C2550      H2554   1.110       .  S
C2550      H2555   1.108       .  S
C2550      H2556   1.111       .  S
In2557     O2559   2.184       .  S
In2557     O2560   2.246       .  S
In2557     O2568   2.243       .  S
In2557     O2562   2.253       .  S
In2557     O2564   2.260       .  S
In2557     O2565   2.245       .  S
In2557     O2566   2.174       .  S
In2557     O2569   2.240       .  S
C2558      O2564   1.271       .  A
C2558      O2566   1.254       .  A
C2558      C2813   1.461       .  S
O2559      C2567   1.254       .  A
O2560      C2567   1.270       .  A
C2561      O2568   1.266       .  A
C2561      O2562   1.269       .  A
C2561      C2684   1.485       .  S
C2563      O2565   1.268       .  A
C2563      O2569   1.268       .  A
C2563      C2704   1.483       .  S
C2567      C2826   1.469       .  S
In2570     O2581   2.247       .  S
In2570     O2575   2.234       .  S
In2570     O2578   2.248       .  S
In2570     O2582   2.237       .  S
C2571      O2577   1.268       .  A
C2571      O3147   1.256   1_554  A
C2571      C2810   1.480       .  S
O2572      C2580   1.255       .  A
O2573      C2580   1.268   1_545  A
C2574      O2581   1.268       .  A
C2574      O2575   1.268       .  A
C2574      C2671   1.479       .  S
C2576      O2578   1.268       .  A
C2576      O2582   1.267       .  A
C2576      C2981   1.480       .  S
O2579      C2855   1.256       .  A
C2580      C2829   1.469       .  S
In2583     O2585   2.246       .  S
In2583     O2586   2.224       .  S
In2583     O2594   2.237       .  S
In2583     O2588   2.249       .  S
In2583     O2590   2.247       .  S
In2583     O2591   2.254       .  S
In2583     O2592   2.192       .  S
In2583     O2595   2.174       .  S
C2584      O2590   1.270       .  A
C2584      O2592   1.256       .  A
C2584      C2781   1.472       .  S
O2585      C2593   1.268       .  A
O2586      C2593   1.268       .  A
C2587      O2594   1.268       .  A
C2587      O2588   1.270       .  A
C2587      C2706   1.483       .  S
C2589      O2591   1.271       .  A
C2589      O2595   1.253       .  A
C2589      C2797   1.472       .  S
C2593      C2691   1.474       .  S
In2596     O2599   2.244       .  S
In2596     O2601   2.240       .  S
In2596     O3171   2.248       .  S
In2596     O2604   2.269       .  S
In2596     O3173   2.184       .  S
In2596     O2608   2.171       .  S
C2597      O2603   1.265       .  A
C2597      O2605   1.255       .  A
C2597      C2794   1.464       .  S
O2598      C2890   1.266       .  A
C2600      O2607   1.268       .  A
C2602      O2604   1.266       .  A
C2602      O2608   1.251       .  A
C2602      C2778   1.461       .  S
O2603     In2880   2.248       .  S
O2605     In2880   2.184       .  S
C2606      O3166   1.266   1_554  A
In2609     O2611   2.202       .  S
In2609     O2612   2.258       .  S
In2609     O2620   2.245       .  S
In2609     O2614   2.253       .  S
In2609     O2616   2.259       .  S
In2609     O2617   2.242       .  S
In2609     O2618   2.179       .  S
In2609     O2621   2.240       .  S
C2610      O2616   1.268       .  A
C2610      O2618   1.254       .  A
C2610      C2762   1.470       .  S
O2611      C2903   1.256       .  A
O2612      C2903   1.266       .  A
C2613      O2620   1.266       .  A
C2613      O2614   1.267       .  A
C2613      C2977   1.482       .  S
C2615      O2617   1.268       .  A
C2615      O2621   1.267       .  A
C2615      C2667   1.482       .  S
C2619      O3179   1.256   1_554  A
C2619      O3180   1.266       .  A
C2619      C2749   1.481       .  S
In2622     O2624   2.190       .  S
In2622     O2625   2.255       .  S
In2622     O2633   2.244       .  S
In2622     O2627   2.257       .  S
In2622     O2629   2.266       .  S
In2622     O2630   2.236       .  S
In2622     O2631   2.179       .  S
In2622     O2634   2.257       .  S
C2623      O2629   1.268       .  A
C2623      O2631   1.253       .  A
C2623      C2746   1.464       .  S
O2624      C2632   1.253       .  A
O2625      C2632   1.268       .  A
C2626      O2633   1.265       .  A
C2626      O2627   1.268       .  A
C2626      C2678   1.483       .  S
C2628      O2630   1.266       .  A
C2628      O2634   1.268       .  A
C2628      C2710   1.481       .  S
C2632      C2765   1.472       .  S
In2635     O2637   2.236       .  S
In2635     O2638   2.242       .  S
In2635     O2646   2.244       .  S
In2635     O2640   2.231       .  S
In2635     O2642   2.268       .  S
In2635     O2643   2.255       .  S
In2635     O2644   2.178       .  S
In2635     O2647   2.173       .  S
C2636      O2642   1.265       .  A
C2636      O2644   1.251       .  A
C2636      C2717   1.463       .  S
O2637      C2645   1.267       .  A
O2638      C2645   1.268       .  A
C2639      O2646   1.267       .  A
C2639      O2640   1.268       .  A
C2639      C2688   1.475       .  S
C2641      O2643   1.265       .  A
C2641      O2647   1.254       .  A
C2641      C2730   1.465       .  S
C2645      C2701   1.480       .  S
In2648     O2651   2.243   1_655  S
In2648     O2653   2.246   1_655  S
In2648     O3223   2.256   1_554  S
In2648     O2656   2.265       .  S
In2648     O3225   2.196       .  S
In2648     O2660   2.171       .  S
C2649      O2655   1.269       .  A
C2649      O2657   1.257       .  A
C2649      C2714   1.475       .  S
O2650      C2942   1.267       .  A
C2652      O2659   1.268       .  A
C2654      O2656   1.270       .  A
C2654      O2660   1.251       .  A
C2654      C2733   1.473       .  S
O2655     In2932   2.256       .  S
O2657     In2932   2.196       .  S
C2658      O3218   1.267   1_554  A
In2661     O2668   2.276       .  S
In2661     O2669   2.273   1_455  S
In2661     O2673   2.287   1_455  S
C2662      O2670   1.261       .  A
O2663      C2671   1.260       .  A
O2664      C2671   1.257       .  A
C2665      O2672   1.260       .  A
C2665      O2666   1.257       .  A
C2667      O2669   1.257       .  A
C2667      O2673   1.261       .  A
In2674     O2685   2.288   1_455  S
In2674     O2679   2.279   1_455  S
In2674     O2681   2.277   1_455  S
In2674     O2682   2.285       .  S
In2674     O2686   2.275       .  S
C2675      O2683   1.258       .  A
O2676      C2684   1.259       .  A
O2677      C2684   1.261       .  A
C2678      O2685   1.259       .  A
C2678      O2679   1.260       .  A
C2680      O2682   1.261       .  A
C2680      O2686   1.258       .  A
In2687     O2689   2.272       .  S
In2687     O2690   2.284       .  S
In2687     O2698   2.279       .  S
In2687     O2692   2.250       .  S
In2687     O2694   2.257       .  S
In2687     O2695   2.286       .  S
In2687     O2699   2.277       .  S
C2688      O2696   1.262       .  A
O2689      C2697   1.259       .  A
O2690      C2697   1.260       .  A
C2691      O2698   1.262       .  A
C2691      O2692   1.258       .  A
C2693      O2695   1.260       .  A
C2693      O2699   1.260       .  A
C2693      C3181   1.482       .  S
C2697      C3144   1.480       .  S
In2700     O2702   2.267       .  S
In2700     O2703   2.289       .  S
In2700     O2711   2.275       .  S
In2700     O2705   2.288       .  S
In2700     O3275   2.279       .  S
In2700     O3276   2.282       .  S
In2700     O3277   2.276   1_554  S
In2700     O3280   2.285   1_554  S
C2701      O2707   1.261       .  A
C2701      O2709   1.258       .  A
O2702      C2710   1.259       .  A
O2703      C2710   1.261       .  A
C2704      O2711   1.258       .  A
C2704      O2705   1.260       .  A
C2706      O2708   1.261       .  A
C2706      O2712   1.258       .  A
O2707     In2984   2.279       .  S
O2708     In2984   2.282       .  S
O2709     In2984   2.276       .  S
O2712     In2984   2.285       .  S
C2713      C2714   1.406       .  A
C2713      C2718   1.392       .  A
C2713      H3004   1.083       .  S
C2714      C2715   1.408       .  A
C2715      C2716   1.406       .  A
C2715      C2722   1.502       .  S
C2716      C2717   1.407       .  A
C2716      H2721   1.084       .  S
C2717      C2718   1.409       .  A
C2718      C3003   1.511       .  S
C2719      C3286   1.511   1_554  S
C2719      H2723   1.110       .  S
C2719      H2724   1.108   1_554  S
C2719      H2725   1.110       .  S
H2720      C3281   1.083   1_554  S
C2722      H2726   1.110       .  S
C2722      H2727   1.106       .  S
C2722      H2728   1.109       .  S
C2729      C2730   1.396       .  A
C2729      C2734   1.389       .  A
C2729      H2736   1.085       .  S
C2730      C2731   1.414       .  A
C2731      C2732   1.403       .  A
C2731      C2738   1.504       .  S
C2732      C2733   1.403       .  A
C2732      H2737   1.084       .  S
C2733      C2734   1.425       .  A
C2734      C2735   1.515       .  S
C2735      H2739   1.111       .  S
C2735      H2740   1.108       .  S
C2735      H2741   1.110       .  S
C2738      H2742   1.106       .  S
C2738      H2743   1.108       .  S
C2738      H2744   1.110       .  S
C2745      C2746   1.402       .  A
C2745      C2750   1.405       .  A
C2745      H2752   1.083       .  S
C2746      C2747   1.408   1_554  A
C2747      C2748   1.394       .  A
C2747      C2754   1.510       .  S
C2748      C2749   1.406   1_556  A
C2748      H2753   1.081       .  S
C2749      C2750   1.413       .  A
C2750      C2751   1.500       .  S
C2751      H2755   1.106       .  S
C2751      H2756   1.110       .  S
C2751      H2757   1.110       .  S
C2754      H3326   1.110       .  S
C2754      H2759   1.108   1_556  S
C2754      H2760   1.110       .  S
H2758      C3038   1.110       .  S
C2761      C2762   1.402       .  A
C2761      C2766   1.395       .  A
C2761      H2768   1.085       .  S
C2762      C2763   1.412       .  A
C2763      C2764   1.401       .  A
C2763      C2770   1.499       .  S
C2764      C2765   1.401       .  A
C2764      H2769   1.085       .  S
C2765      C2766   1.417       .  A
C2766      C2767   1.511       .  S
C2767      H2771   1.109       .  S
C2767      H2772   1.111       .  S
C2767      H2773   1.106       .  S
C2770      H2774   1.106       .  S
C2770      H2775   1.108       .  S
C2770      H2776   1.109       .  S
C2777      C2778   1.408       .  A
C2777      C2782   1.405       .  A
C2777      H2784   1.084       .  S
C2778      C2779   1.410       .  A
C2779      C2780   1.392       .  A
C2779      C2786   1.512       .  S
C2780      C2781   1.405       .  A
C2780      H2785   1.083       .  S
C2781      C2782   1.404       .  A
C2782      C2783   1.499       .  S
C2783      H2787   1.107       .  S
C2783      H2788   1.108       .  S
C2783      H2789   1.105       .  S
C2786      H2790   1.108       .  S
C2786      H2791   1.109       .  S
C2786      H2792   1.110       .  S
C2793      C2794   1.396       .  A
C2793      C2798   1.390       .  A
C2793      H2800   1.085       .  S
C2794      C2795   1.413       .  A
C2795      C2796   1.401       .  A
C2795      C3086   1.505       .  S
C2796      C2797   1.403       .  A
C2796      H3085   1.084       .  S
C2797      C2798   1.424       .  A
C2798      C2799   1.514       .  S
C2799      H2803   1.111       .  S
C2799      H2804   1.109       .  S
C2799      H2805   1.110       .  S
H2801      C3364   1.084       .  S
C2802      C3363   1.505   1_554  S
C2802      H2806   1.108   1_554  S
C2802      H2807   1.110       .  S
C2802      H2808   1.110       .  S
C2809      C2810   1.406       .  A
C2809      C2814   1.394       .  A
C2809      H2816   1.083   1_554  S
C2810      C2811   1.414       .  A
C2811      C2812   1.403       .  A
C2811      C2818   1.499       .  S
C2812      C2813   1.400       .  A
C2812      H2817   1.084       .  S
C2813      C2814   1.409       .  A
C2814      C2815   1.510   1_554  S
C2815      H2819   1.109       .  S
C2815      H2820   1.110       .  S
C2815      H2821   1.108   1_556  S
C2818      H2822   1.110       .  S
C2818      H2823   1.110       .  S
C2818      H2824   1.107       .  S
C2825      C2826   1.401       .  A
C2825      C2830   1.399       .  A
C2825      H2832   1.085       .  S
C2826      C2827   1.418       .  A
C2827      C2828   1.395       .  A
C2827      C2834   1.512       .  S
C2828      C2829   1.402       .  A
C2828      H2833   1.085       .  S
C2829      C2830   1.413       .  A
C2830      C2831   1.501       .  S
C2831      H2835   1.110       .  S
C2831      H2836   1.106       .  S
C2831      H2837   1.108       .  S
C2834      H2838   1.110       .  S
C2834      H2839   1.108       .  S
C2834      H2840   1.111       .  S
In2841     O2843   2.184       .  S
In2841     O2844   2.246       .  S
In2841     O2852   2.243       .  S
In2841     O2846   2.253       .  S
In2841     O2848   2.260       .  S
In2841     O2849   2.245       .  S
In2841     O2850   2.174       .  S
In2841     O2853   2.240       .  S
C2842      O2848   1.271       .  A
C2842      O2850   1.254       .  A
C2842      C3097   1.461       .  S
O2843      C2851   1.254       .  A
O2844      C2851   1.270       .  A
C2845      O2852   1.266       .  A
C2845      O2846   1.269       .  A
C2845      C2968   1.485       .  S
C2847      O2849   1.268       .  A
C2847      O2853   1.268       .  A
C2847      C2988   1.483       .  S
C2851      C3110   1.469       .  S
In2854     O2865   2.247       .  S
In2854     O2859   2.234       .  S
In2854     O2862   2.248       .  S
In2854     O2866   2.237       .  S
C2855      O2861   1.268       .  A
C2855      C3094   1.480       .  S
O2856      C2864   1.255       .  A
O2857      C2864   1.268   1_545  A
C2858      O2865   1.268       .  A
C2858      O2859   1.268       .  A
C2858      C2955   1.479       .  S
C2860      O2862   1.268       .  A
C2860      O2866   1.267       .  A
C2860      C3265   1.480       .  S
O2863      C3139   1.256       .  A
C2864      C3113   1.469       .  S
In2867     O2869   2.246       .  S
In2867     O2870   2.224       .  S
In2867     O2878   2.237       .  S
In2867     O2872   2.249       .  S
In2867     O2874   2.247       .  S
In2867     O2875   2.254       .  S
In2867     O2876   2.192       .  S
In2867     O2879   2.174       .  S
C2868      O2874   1.270       .  A
C2868      O2876   1.256       .  A
C2868      C3065   1.472       .  S
O2869      C2877   1.268       .  A
O2870      C2877   1.268       .  A
C2871      O2878   1.268       .  A
C2871      O2872   1.270       .  A
C2871      C2990   1.483       .  S
C2873      O2875   1.271       .  A
C2873      O2879   1.253       .  A
C2873      C3081   1.472       .  S
C2877      C2975   1.474       .  S
In2880     O2883   2.244       .  S
In2880     O2885   2.240       .  S
In2880     O2888   2.269       .  S
In2880     O2892   2.171       .  S
C2881      O2887   1.265       .  A
C2881      O2889   1.255       .  A
C2881      C3078   1.464       .  S
O2882      C3174   1.266       .  A
C2884      O2891   1.268       .  A
C2886      O2888   1.266       .  A
C2886      O2892   1.251       .  A
C2886      C3062   1.461       .  S
O2887     In3164   2.248       .  S
O2889     In3164   2.184       .  S
In2893     O2895   2.202       .  S
In2893     O2896   2.258       .  S
In2893     O2904   2.245       .  S
In2893     O2898   2.253       .  S
In2893     O2900   2.259       .  S
In2893     O2901   2.242       .  S
In2893     O2902   2.179       .  S
In2893     O2905   2.240       .  S
C2894      O2900   1.268       .  A
C2894      O2902   1.254       .  A
C2894      C3046   1.470       .  S
O2895      C3187   1.256       .  A
O2896      C3187   1.266       .  A
C2897      O2904   1.266       .  A
C2897      O2898   1.267       .  A
C2897      C3261   1.482       .  S
C2899      O2901   1.268       .  A
C2899      O2905   1.267       .  A
C2899      C2951   1.482       .  S
C2903      C3033   1.481       .  S
In2906     O2908   2.190       .  S
In2906     O2909   2.255       .  S
In2906     O2917   2.244       .  S
In2906     O2911   2.257       .  S
In2906     O2913   2.266       .  S
In2906     O2914   2.236       .  S
In2906     O2915   2.179       .  S
In2906     O2918   2.257       .  S
C2907      O2913   1.268       .  A
C2907      O2915   1.253       .  A
C2907      C3030   1.464       .  S
O2908      C2916   1.253       .  A
O2909      C2916   1.268       .  A
C2910      O2917   1.265       .  A
C2910      O2911   1.268       .  A
C2910      C2962   1.483       .  S
C2912      O2914   1.266       .  A
C2912      O2918   1.268       .  A
C2912      C2994   1.481       .  S
C2916      C3049   1.472       .  S
In2919     O2921   2.236       .  S
In2919     O2922   2.242       .  S
In2919     O2930   2.244       .  S
In2919     O2924   2.231       .  S
In2919     O2926   2.268       .  S
In2919     O2927   2.255       .  S
In2919     O2928   2.178       .  S
In2919     O2931   2.173       .  S
C2920      O2926   1.265       .  A
C2920      O2928   1.251       .  A
C2920      C3001   1.463       .  S
O2921      C2929   1.267       .  A
O2922      C2929   1.268       .  A
C2923      O2930   1.267       .  A
C2923      O2924   1.268       .  A
C2923      C2972   1.475       .  S
C2925      O2927   1.265       .  A
C2925      O2931   1.254       .  A
C2925      C3014   1.465       .  S
C2929      C2985   1.480       .  S
In2932     O2935   2.243   1_655  S
In2932     O2937   2.246   1_655  S
In2932     O2940   2.265       .  S
In2932     O2944   2.171       .  S
C2933      O2939   1.269       .  A
C2933      O2941   1.257       .  A
C2933      C2998   1.475       .  S
O2934      C3226   1.267       .  A
C2936      O2943   1.268       .  A
C2938      O2940   1.270       .  A
C2938      O2944   1.251       .  A
C2938      C3017   1.473       .  S
O2939     In3216   2.256       .  S
O2941     In3216   2.196       .  S
In2945     O2952   2.276       .  S
In2945     O2953   2.273   1_455  S
In2945     O2957   2.287   1_455  S
C2946      O2954   1.261       .  A
O2947      C2955   1.260       .  A
O2948      C2955   1.257       .  A
C2949      O2956   1.260       .  A
C2949      O2950   1.257       .  A
C2951      O2953   1.257       .  A
C2951      O2957   1.261       .  A
In2958     O2969   2.288   1_455  S
In2958     O2963   2.279   1_455  S
In2958     O2965   2.277   1_455  S
In2958     O2966   2.285       .  S
In2958     O2970   2.275       .  S
C2959      O2967   1.258       .  A
O2960      C2968   1.259       .  A
O2961      C2968   1.261       .  A
C2962      O2969   1.259       .  A
C2962      O2963   1.260       .  A
C2964      O2966   1.261       .  A
C2964      O2970   1.258       .  A
In2971     O2973   2.272       .  S
In2971     O2974   2.284       .  S
In2971     O2982   2.279       .  S
In2971     O2976   2.250       .  S
In2971     O2978   2.257       .  S
In2971     O2979   2.286       .  S
In2971     O2983   2.277       .  S
C2972      O2980   1.262       .  A
O2973      C2981   1.259       .  A
O2974      C2981   1.260       .  A
C2975      O2982   1.262       .  A
C2975      O2976   1.258       .  A
C2977      O2979   1.260       .  A
C2977      O2983   1.260       .  A
In2984     O2986   2.267       .  S
In2984     O2987   2.289       .  S
In2984     O2995   2.275       .  S
In2984     O2989   2.288       .  S
C2985      O2991   1.261       .  A
C2985      O2993   1.258       .  A
O2986      C2994   1.259       .  A
O2987      C2994   1.261       .  A
C2988      O2995   1.258       .  A
C2988      O2989   1.260       .  A
C2990      O2992   1.261       .  A
C2990      O2996   1.258       .  A
O2991     In3268   2.279       .  S
O2992     In3268   2.282       .  S
O2993     In3268   2.276       .  S
O2996     In3268   2.285       .  S
C2997      C2998   1.406       .  A
C2997      C3002   1.392       .  A
C2997      H3288   1.083       .  S
C2998      C2999   1.408       .  A
C2999      C3000   1.406       .  A
C2999      C3006   1.502       .  S
C3000      C3001   1.407       .  A
C3000      H3005   1.084       .  S
C3001      C3002   1.409       .  A
C3002      C3287   1.511       .  S
C3003      H3007   1.110       .  S
C3003      H3008   1.108       .  S
C3003      H3009   1.110       .  S
C3006      H3010   1.110       .  S
C3006      H3011   1.106       .  S
C3006      H3012   1.109       .  S
C3013      C3014   1.396       .  A
C3013      C3018   1.389       .  A
C3013      H3020   1.085       .  S
C3014      C3015   1.414       .  A
C3015      C3016   1.403       .  A
C3015      C3022   1.504       .  S
C3016      C3017   1.403       .  A
C3016      H3021   1.084       .  S
C3017      C3018   1.425       .  A
C3018      C3019   1.515       .  S
C3019      H3023   1.111       .  S
C3019      H3024   1.108       .  S
C3019      H3025   1.110       .  S
C3022      H3026   1.106       .  S
C3022      H3027   1.108       .  S
C3022      H3028   1.110       .  S
C3029      C3030   1.402       .  A
C3029      C3034   1.405       .  A
C3029      H3036   1.083       .  S
C3030      C3031   1.408       .  A
C3031      C3032   1.394       .  A
C3031      C3038   1.510       .  S
C3032      C3033   1.406       .  A
C3032      H3037   1.081       .  S
C3033      C3034   1.413       .  A
C3034      C3035   1.500       .  S
C3035      H3039   1.106       .  S
C3035      H3040   1.110       .  S
C3035      H3041   1.110       .  S
C3038      H3043   1.108       .  S
C3038      H3044   1.110       .  S
H3042      C3322   1.110       .  S
C3045      C3046   1.402       .  A
C3045      C3050   1.395       .  A
C3045      H3052   1.085       .  S
C3046      C3047   1.412       .  A
C3047      C3048   1.401       .  A
C3047      C3054   1.499       .  S
C3048      C3049   1.401       .  A
C3048      H3053   1.085       .  S
C3049      C3050   1.417       .  A
C3050      C3051   1.511       .  S
C3051      H3055   1.109       .  S
C3051      H3056   1.111       .  S
C3051      H3057   1.106       .  S
C3054      H3058   1.106       .  S
C3054      H3059   1.108       .  S
C3054      H3060   1.109       .  S
C3061      C3062   1.408       .  A
C3061      C3066   1.405       .  A
C3061      H3068   1.084       .  S
C3062      C3063   1.410       .  A
C3063      C3064   1.392       .  A
C3063      C3070   1.512       .  S
C3064      C3065   1.405       .  A
C3064      H3069   1.083       .  S
C3065      C3066   1.404       .  A
C3066      C3067   1.499       .  S
C3067      H3071   1.107       .  S
C3067      H3072   1.108       .  S
C3067      H3073   1.105       .  S
C3070      H3074   1.108       .  S
C3070      H3075   1.109       .  S
C3070      H3076   1.110       .  S
C3077      C3078   1.396       .  A
C3077      C3082   1.390       .  A
C3077      H3084   1.085       .  S
C3078      C3079   1.413       .  A
C3079      C3080   1.401       .  A
C3079      C3370   1.505       .  S
C3080      C3081   1.403       .  A
C3080      H3369   1.084       .  S
C3081      C3082   1.424       .  A
C3082      C3083   1.514       .  S
C3083      H3087   1.111       .  S
C3083      H3088   1.109       .  S
C3083      H3089   1.110       .  S
C3086      H3090   1.108       .  S
C3086      H3091   1.110       .  S
C3086      H3092   1.110       .  S
C3093      C3094   1.406       .  A
C3093      C3098   1.394       .  A
C3093      H3100   1.083       .  S
C3094      C3095   1.414       .  A
C3095      C3096   1.403       .  A
C3095      C3102   1.499       .  S
C3096      C3097   1.400       .  A
C3096      H3101   1.084       .  S
C3097      C3098   1.409       .  A
C3098      C3099   1.510       .  S
C3099      H3103   1.109       .  S
C3099      H3104   1.110       .  S
C3099      H3105   1.108       .  S
C3102      H3106   1.110       .  S
C3102      H3107   1.110       .  S
C3102      H3108   1.107       .  S
C3109      C3110   1.401       .  A
C3109      C3114   1.399       .  A
C3109      H3116   1.085       .  S
C3110      C3111   1.418       .  A
C3111      C3112   1.395       .  A
C3111      C3118   1.512       .  S
C3112      C3113   1.402       .  A
C3112      H3117   1.085       .  S
C3113      C3114   1.413       .  A
C3114      C3115   1.501       .  S
C3115      H3119   1.110       .  S
C3115      H3120   1.106       .  S
C3115      H3121   1.108       .  S
C3118      H3122   1.110       .  S
C3118      H3123   1.108       .  S
C3118      H3124   1.111       .  S
In3125     O3127   2.184       .  S
In3125     O3128   2.246       .  S
In3125     O3136   2.243       .  S
In3125     O3130   2.253       .  S
In3125     O3132   2.260       .  S
In3125     O3133   2.245       .  S
In3125     O3134   2.174       .  S
In3125     O3137   2.240       .  S
C3126      O3132   1.271       .  A
C3126      O3134   1.254       .  A
C3126      C3381   1.461       .  S
O3127      C3135   1.254       .  A
O3128      C3135   1.270       .  A
C3129      O3136   1.266       .  A
C3129      O3130   1.269       .  A
C3129      C3252   1.485       .  S
C3131      O3133   1.268       .  A
C3131      O3137   1.268       .  A
C3131      C3272   1.483       .  S
C3135      C3394   1.469       .  S
In3138     O3149   2.247       .  S
In3138     O3143   2.234       .  S
In3138     O3146   2.248       .  S
In3138     O3150   2.237   1_556  S
C3139      O3145   1.268       .  A
C3139      C3378   1.480       .  S
O3140      C3148   1.255       .  A
O3141      C3148   1.268   1_545  A
C3142      O3149   1.268       .  A
C3142      O3143   1.268       .  A
C3142      C3239   1.479       .  S
C3144      O3146   1.268   1_554  A
C3144      O3150   1.267       .  A
C3148      C3397   1.469       .  S
In3151     O3153   2.246       .  S
In3151     O3154   2.224       .  S
In3151     O3162   2.237       .  S
In3151     O3156   2.249       .  S
In3151     O3158   2.247       .  S
In3151     O3159   2.254       .  S
In3151     O3160   2.192       .  S
In3151     O3163   2.174       .  S
C3152      O3158   1.270       .  A
C3152      O3160   1.256       .  A
C3152      C3349   1.472       .  S
O3153      C3161   1.268       .  A
O3154      C3161   1.268       .  A
C3155      O3162   1.268       .  A
C3155      O3156   1.270       .  A
C3155      C3274   1.483       .  S
C3157      O3159   1.271       .  A
C3157      O3163   1.253       .  A
C3157      C3365   1.472       .  S
C3161      C3259   1.474       .  S
In3164     O3167   2.244       .  S
In3164     O3169   2.240       .  S
In3164     O3172   2.269       .  S
In3164     O3176   2.171       .  S
C3165      O3171   1.265   1_556  A
C3165      O3173   1.255   1_556  A
C3165      C3362   1.464       .  S
C3168      O3175   1.268       .  A
C3170      O3172   1.266       .  A
C3170      O3176   1.251       .  A
C3170      C3346   1.461       .  S
In3177     O3179   2.202       .  S
In3177     O3180   2.258   1_556  S
In3177     O3188   2.245   1_556  S
In3177     O3182   2.253       .  S
In3177     O3184   2.259       .  S
In3177     O3185   2.242       .  S
In3177     O3186   2.179       .  S
In3177     O3189   2.240       .  S
C3178      O3184   1.268       .  A
C3178      O3186   1.254       .  A
C3178      C3330   1.470       .  S
C3181      O3188   1.266       .  A
C3181      O3182   1.267   1_554  A
C3183      O3185   1.268       .  A
C3183      O3189   1.267       .  A
C3183      C3235   1.482       .  S
C3187      C3317   1.481       .  S
In3190     O3192   2.190       .  S
In3190     O3193   2.255       .  S
In3190     O3201   2.244       .  S
In3190     O3195   2.257       .  S
In3190     O3197   2.266       .  S
In3190     O3198   2.236       .  S
In3190     O3199   2.179       .  S
In3190     O3202   2.257       .  S
C3191      O3197   1.268       .  A
C3191      O3199   1.253       .  A
C3191      C3314   1.464       .  S
O3192      C3200   1.253       .  A
O3193      C3200   1.268       .  A
C3194      O3201   1.265       .  A
C3194      O3195   1.268       .  A
C3194      C3246   1.483       .  S
C3196      O3198   1.266       .  A
C3196      O3202   1.268       .  A
C3196      C3278   1.481       .  S
C3200      C3333   1.472       .  S
In3203     O3205   2.236       .  S
In3203     O3206   2.242       .  S
In3203     O3214   2.244       .  S
In3203     O3208   2.231       .  S
In3203     O3210   2.268       .  S
In3203     O3211   2.255       .  S
In3203     O3212   2.178       .  S
In3203     O3215   2.173       .  S
C3204      O3210   1.265       .  A
C3204      O3212   1.251       .  A
C3204      C3285   1.463       .  S
O3205      C3213   1.267       .  A
O3206      C3213   1.268       .  A
C3207      O3214   1.267       .  A
C3207      O3208   1.268       .  A
C3207      C3256   1.475       .  S
C3209      O3211   1.265       .  A
C3209      O3215   1.254       .  A
C3209      C3298   1.465       .  S
C3213      C3269   1.480       .  S
In3216     O3219   2.243   1_655  S
In3216     O3221   2.246   1_655  S
In3216     O3224   2.265       .  S
In3216     O3228   2.171       .  S
C3217      O3223   1.269       .  A
C3217      O3225   1.257   1_556  A
C3217      C3282   1.475       .  S
C3220      O3227   1.268       .  A
C3222      O3224   1.270       .  A
C3222      O3228   1.251       .  A
C3222      C3301   1.473       .  S
In3229     O3236   2.276       .  S
In3229     O3237   2.273   1_455  S
In3229     O3241   2.287   1_455  S
C3230      O3238   1.261       .  A
O3231      C3239   1.260       .  A
O3232      C3239   1.257       .  A
C3233      O3240   1.260       .  A
C3233      O3234   1.257       .  A
C3235      O3237   1.257       .  A
C3235      O3241   1.261       .  A
In3242     O3253   2.288   1_455  S
In3242     O3247   2.279   1_455  S
In3242     O3249   2.277   1_455  S
In3242     O3250   2.285       .  S
In3242     O3254   2.275       .  S
C3243      O3251   1.258       .  A
O3244      C3252   1.259       .  A
O3245      C3252   1.261       .  A
C3246      O3253   1.259       .  A
C3246      O3247   1.260       .  A
C3248      O3250   1.261       .  A
C3248      O3254   1.258       .  A
In3255     O3257   2.272       .  S
In3255     O3258   2.284       .  S
In3255     O3266   2.279       .  S
In3255     O3260   2.250       .  S
In3255     O3262   2.257       .  S
In3255     O3263   2.286       .  S
In3255     O3267   2.277       .  S
C3256      O3264   1.262       .  A
O3257      C3265   1.259       .  A
O3258      C3265   1.260       .  A
C3259      O3266   1.262       .  A
C3259      O3260   1.258       .  A
C3261      O3263   1.260       .  A
C3261      O3267   1.260       .  A
In3268     O3270   2.267       .  S
In3268     O3271   2.289       .  S
In3268     O3279   2.275       .  S
In3268     O3273   2.288       .  S
C3269      O3275   1.261   1_556  A
C3269      O3277   1.258       .  A
O3270      C3278   1.259       .  A
O3271      C3278   1.261       .  A
C3272      O3279   1.258       .  A
C3272      O3273   1.260       .  A
C3274      O3276   1.261   1_556  A
C3274      O3280   1.258       .  A
C3281      C3282   1.406       .  A
C3281      C3286   1.392       .  A
C3282      C3283   1.408       .  A
C3283      C3284   1.406       .  A
C3283      C3290   1.502       .  S
C3284      C3285   1.407       .  A
C3284      H3289   1.084       .  S
C3285      C3286   1.409       .  A
C3287      H3291   1.110       .  S
C3287      H3292   1.108       .  S
C3287      H3293   1.110       .  S
C3290      H3294   1.110       .  S
C3290      H3295   1.106       .  S
C3290      H3296   1.109       .  S
C3297      C3298   1.396       .  A
C3297      C3302   1.389       .  A
C3297      H3304   1.085       .  S
C3298      C3299   1.414       .  A
C3299      C3300   1.403       .  A
C3299      C3306   1.504       .  S
C3300      C3301   1.403       .  A
C3300      H3305   1.084       .  S
C3301      C3302   1.425       .  A
C3302      C3303   1.515       .  S
C3303      H3307   1.111       .  S
C3303      H3308   1.108       .  S
C3303      H3309   1.110       .  S
C3306      H3310   1.106       .  S
C3306      H3311   1.108       .  S
C3306      H3312   1.110       .  S
C3313      C3314   1.402       .  A
C3313      C3318   1.405       .  A
C3313      H3320   1.083       .  S
C3314      C3315   1.408       .  A
C3315      C3316   1.394       .  A
C3315      C3322   1.510       .  S
C3316      C3317   1.406       .  A
C3316      H3321   1.081       .  S
C3317      C3318   1.413       .  A
C3318      C3319   1.500       .  S
C3319      H3323   1.106       .  S
C3319      H3324   1.110       .  S
C3319      H3325   1.110       .  S
C3322      H3327   1.108       .  S
C3322      H3328   1.110       .  S
C3329      C3330   1.402       .  A
C3329      C3334   1.395       .  A
C3329      H3336   1.085       .  S
C3330      C3331   1.412       .  A
C3331      C3332   1.401       .  A
C3331      C3338   1.499       .  S
C3332      C3333   1.401       .  A
C3332      H3337   1.085       .  S
C3333      C3334   1.417       .  A
C3334      C3335   1.511       .  S
C3335      H3339   1.109       .  S
C3335      H3340   1.111       .  S
C3335      H3341   1.106       .  S
C3338      H3342   1.106       .  S
C3338      H3343   1.108       .  S
C3338      H3344   1.109       .  S
C3345      C3346   1.408       .  A
C3345      C3350   1.405       .  A
C3345      H3352   1.084       .  S
C3346      C3347   1.410       .  A
C3347      C3348   1.392       .  A
C3347      C3354   1.512       .  S
C3348      C3349   1.405       .  A
C3348      H3353   1.083       .  S
C3349      C3350   1.404       .  A
C3350      C3351   1.499       .  S
C3351      H3355   1.107       .  S
C3351      H3356   1.108       .  S
C3351      H3357   1.105       .  S
C3354      H3358   1.108       .  S
C3354      H3359   1.109       .  S
C3354      H3360   1.110       .  S
C3361      C3362   1.396       .  A
C3361      C3366   1.390       .  A
C3361      H3368   1.085       .  S
C3362      C3363   1.413       .  A
C3363      C3364   1.401       .  A
C3364      C3365   1.403       .  A
C3365      C3366   1.424       .  A
C3366      C3367   1.514       .  S
C3367      H3371   1.111       .  S
C3367      H3372   1.109       .  S
C3367      H3373   1.110       .  S
C3370      H3374   1.108       .  S
C3370      H3375   1.110       .  S
C3370      H3376   1.110       .  S
C3377      C3378   1.406       .  A
C3377      C3382   1.394       .  A
C3377      H3384   1.083       .  S
C3378      C3379   1.414       .  A
C3379      C3380   1.403       .  A
C3379      C3386   1.499       .  S
C3380      C3381   1.400       .  A
C3380      H3385   1.084       .  S
C3381      C3382   1.409       .  A
C3382      C3383   1.510       .  S
C3383      H3387   1.109       .  S
C3383      H3388   1.110       .  S
C3383      H3389   1.108       .  S
C3386      H3390   1.110       .  S
C3386      H3391   1.110       .  S
C3386      H3392   1.107       .  S
C3393      C3394   1.401       .  A
C3393      C3398   1.399       .  A
C3393      H3400   1.085       .  S
C3394      C3395   1.418       .  A
C3395      C3396   1.395       .  A
C3395      C3402   1.512       .  S
C3396      C3397   1.402       .  A
C3396      H3401   1.085       .  S
C3397      C3398   1.413       .  A
C3398      C3399   1.501       .  S
C3399      H3403   1.110       .  S
C3399      H3404   1.106       .  S
C3399      H3405   1.108       .  S
C3402      H3406   1.110       .  S
C3402      H3407   1.108       .  S
C3402      H3408   1.111       .  S
