geometry optimzed in LAMMPS
_audit_creation_date              2020-11-30 
_audit_creation_method            'lammps2cif' 
_symmetry_space_group_name_H-M    'P1' 
_symmetry_Int_Tables_number       1 
_symmetry_cell_setting            triclinic 
loop_ 
_symmetry_equiv_pos_as_xyz 
  x,y,z 
_cell_length_a                    42.25311282 
_cell_length_b                    42.3500509692599 
_cell_length_c                    42.59657670637293 
_cell_angle_alpha                 88.38372289425554 
_cell_angle_beta                  88.1567169918431 
_cell_angle_gamma                 90.8756525437569 
loop_ 
_atom_site_label 
_atom_site_type_symbol 
_atom_site_fract_x 
_atom_site_fract_y 
_atom_site_fract_z 
_atom_site_charge 
C1          C  0.47989151  0.09991753  0.26827023     0.85600
C2          C  0.44962592  0.11987739  0.26720153    -0.54700
C3          C  0.44787720  0.14028128  0.24177507     0.08500
C4          C  0.97693088  0.13724842  0.21802857     0.19400
C5          C  0.47932605  0.08204795  0.23748434    -0.55400
C6          C  0.47919399  0.10093541  0.21091868     0.08600
C7          C  0.00693557  0.12342514  0.26381672    -0.54900
C8          C  0.00579887  0.14351707  0.23878166     0.09200
H9          H  0.43094783  0.11794147  0.28528164     0.13700
H10         H  0.97620888  0.15313355  0.19689733    -0.00600
H11         H  0.47807509  0.05663084  0.23611816     0.14000
H12         H  0.02636052  0.12410475  0.28002413     0.13800
O13         O  0.03061661  0.04652487  0.40818861    -0.81100
O14         O  0.38036756  0.46591780  0.47503275    -0.82600
O15         O  0.45362105  0.47584429  0.38840372    -0.79600
O16         O  0.42674187  0.06287705  0.43366232    -0.78000
O17         O  0.43530665  0.08225380  0.48225732    -0.79800
O18         O  0.48506116  0.43394536  0.40061692    -0.80700
O19         O  0.39604560  0.49742979  0.43307473    -0.82100
O20         O  0.47968684  0.03757014  0.39383703    -0.82300
Eu21       Eu  0.45116437  0.01010920  0.43447365     2.39200
O22         O  0.43115433  0.01269582  0.48576525    -0.89900
O23         O  0.50230198  0.48923224  0.43249288    -0.93500
C24         C  0.50760585  0.04881069  0.38915736     1.01200
C25         C  0.37521006  0.48099252  0.44887627     1.01000
C26         C  0.46787126  0.44999860  0.38181909     1.01000
C27         C  0.42496607  0.08465433  0.45425243     0.98800
H28         H  0.43459096  0.44551869  0.44264204     0.28600
O29         O  0.44833285  0.45823315  0.45504336    -1.02200
H30         H  0.48654664  0.06376005  0.45206740     0.28600
O31         O  0.48509615  0.04295642  0.46196875    -1.04800
O32         O  0.43007356  0.44041986  0.06119360    -0.82000
O33         O  0.08302795  0.01040376  0.49332314    -0.81600
O34         O  0.46226296  0.39209563  0.46004662    -0.80000
O35         O  0.40940448  0.04272415  0.03908317    -0.83300
O36         O  0.49970655  0.09385355  0.00571417    -0.81200
O37         O  0.05434375  0.44177054  0.42755285    -0.79800
O38         O  0.03461908  0.42089754  0.03609048    -0.81400
O39         O  0.00339875  0.01207129  0.08430464    -0.83300
O40         O  0.02989576  0.40168767  0.48507841    -0.80000
O41         O  0.47506770  0.05436781  0.06777186    -0.82700
O42         O  0.42060899  0.40578780  0.49195204    -0.78400
O43         O  0.07276879  0.49278213  0.42989490    -0.78500
O44         O  0.04663943  0.07472660  0.47449150    -0.78100
O45         O  0.39063651  0.49159181  0.03671857    -0.81600
O46         O  0.48129563  0.44607527  0.07661105    -0.81000
O47         O  0.06782775  0.48689791  0.03971994    -0.79400
Eu48       Eu  0.42799248  0.46213479  0.00615645     2.39800
Eu49       Eu  0.03572179  0.02086793  0.46163814     2.39600
Eu50       Eu  0.50008000  0.43826844  0.45490556     2.38400
Eu51       Eu  0.46382915  0.04636406  0.01352809     2.39900
Eu52       Eu  0.01175681  0.47541259  0.03772522     2.39800
O53         O  0.01559113  0.02677548  0.01550141    -0.93800
O54         O  0.47997376  0.44017430  0.50750933    -0.92700
C55         C  0.45213791  0.43833891  0.08157307     1.01400
C56         C  0.08921257  0.99869575  0.02103167     1.00100
C57         C  0.43518087  0.38598106  0.47435767     0.99500
C58         C  0.38833383  0.02053312  0.04518742     1.01500
C59         C  0.03182724  0.09571578  0.49006574     1.00400
C60         C  0.07550163  0.46405692  0.42160872     0.99300
C61         C  0.03813422  0.40034166  0.01419588     0.99300
C62         C  0.48873045  0.03847897  0.08933789     1.02000
H63         H  0.05228161  0.46076494  0.48550665     0.29300
O64         O  0.03168625  0.47031294  0.48549212    -1.05900
H65         H  0.45121171  0.49691389  0.05633248     0.31400
O66         O  0.46042257  0.49526433  0.03541717    -1.08500
C67         C  0.21287869  0.04838432  0.11830384     0.85600
C68         C  0.19341599  0.03723616  0.09148399    -0.54700
C69         C  0.20550829  0.01258344  0.07587098     0.08500
C70         C  0.23670100  0.50039286  0.08917369     0.19400
C71         C  0.21552260  0.01823176  0.13958509    -0.55400
C72         C  0.22812677  0.49300477  0.12426583     0.08600
C73         C  0.24651439  0.05429360  0.10475565    -0.54900
C74         C  0.25919834  0.02939598  0.08960879     0.09200
H75         H  0.17053735  0.04718432  0.08613623     0.13700
H76         H  0.24671289  0.48018311  0.07635460    -0.00600
H77         H  0.20612471  0.01589384  0.16343589     0.14000
H78         H  0.25977415  0.07601915  0.10829740     0.13800
O79         O  0.14573084  0.20313027  0.26753203    -0.81100
O80         O  0.21923286  0.28493939  0.12118479    -0.82600
O81         O  0.12844233  0.27541273  0.19434235    -0.79600
O82         O  0.17404021  0.18952478  0.16885677    -0.78000
O83         O  0.22167068  0.16730594  0.18010557    -0.79800
O84         O  0.14059698  0.31774990  0.22416294    -0.80700
O85         O  0.17504120  0.25536362  0.13466944    -0.82100
O86         O  0.13434366  0.21309518  0.21618127    -0.82300
Eu87       Eu  0.17567544  0.24215208  0.19051921     2.39200
O88         O  0.22794096  0.23752033  0.17227759    -0.89900
O89         O  0.17213066  0.26095619  0.24175599    -0.93500
C90         C  0.12756872  0.20127093  0.24340953     1.01200
C91         C  0.19281287  0.27112919  0.11459249     1.01000
C92         C  0.12143462  0.30112858  0.20832387     1.01000
C93         C  0.19359445  0.16657492  0.16926072     0.98800
H94         H  0.18476214  0.30689714  0.17391369     0.28600
O95         O  0.19659433  0.29349412  0.18786429    -1.02200
H96         H  0.19236478  0.18766870  0.22693155     0.28600
O97         O  0.20247979  0.20825779  0.22534535    -1.04800
O98         O  0.30355190  0.31109430  0.17261569    -0.82000
O99         O  0.22972862  0.23671766  0.32526837    -0.81600
O100        O  0.20572384  0.35903210  0.20455163    -0.80000
O101        O  0.28094428  0.20712592  0.15199914    -0.83300
O102        O  0.24783734  0.15826074  0.24675113    -0.81200
O103        O  0.16746842  0.30902633  0.29392277    -0.79800
O104        O  0.27345683  0.33245716  0.27791464    -0.81400
O105        O  0.32410706  0.23890010  0.25113890    -0.83300
O106        O  0.22307568  0.34787954  0.26971596    -0.80000
O107        O  0.31031677  0.19756414  0.22049249    -0.82700
O108        O  0.23857905  0.34501299  0.16363912    -0.78400
O109        O  0.16732765  0.25746513  0.31187000    -0.78500
O110        O  0.21474099  0.17289019  0.28696685    -0.78100
O111        O  0.27998211  0.25834650  0.13306227    -0.81600
O112        O  0.31737529  0.30488074  0.22408309    -0.81000
O113        O  0.27500094  0.26568197  0.31321762    -0.79400
Eu114      Eu  0.24970818  0.28886106  0.17021767     2.39800
Eu115      Eu  0.20005380  0.22778937  0.27610879     2.39600
Eu116      Eu  0.19485031  0.31156388  0.23981437     2.38400
Eu117      Eu  0.25523130  0.20409247  0.20706793     2.39900
Eu118      Eu  0.27727521  0.27666170  0.25598849     2.39800
O119        O  0.25383124  0.22523086  0.25815498    -0.93800
O120        O  0.24806424  0.30874809  0.22146206    -0.92700
C121        C  0.32284840  0.31362211  0.19525314     1.01400
C122        C  0.25527113  0.25165871  0.33307156     1.00100
C123        C  0.22220925  0.36531659  0.17885267     0.99500
C124        C  0.28712708  0.22916826  0.13049097     1.01500
C125        C  0.23237811  0.15238572  0.27335827     1.00400
C126        C  0.16068417  0.28671964  0.31490672     0.99300
C127        C  0.25054294  0.35282937  0.27993462     0.99300
C128        C  0.33064629  0.21305955  0.23614320     1.02000
H129        H  0.22308173  0.28793048  0.29321366     0.29300
O130        O  0.22376067  0.27855852  0.27284786    -1.05900
H131        H  0.29866123  0.25388114  0.19681632     0.31400
O132        O  0.27723037  0.25555470  0.20511813    -1.08500
C133        C  0.09548300  0.22147871  0.47911489     0.85600
C134        C  0.12113693  0.22473835  0.99496679    -0.54700
C135        C  0.13713213  0.25306713  0.99408999     0.08500
C136        C  0.12543526  0.27604595  0.47346976     0.19400
C137        C  0.07757583  0.24948618  0.49337876    -0.55400
C138        C  0.09232265  0.27820997  0.48926625     0.08600
C139        C  0.10321199  0.23255964  0.44481208    -0.54900
C140        C  0.11949931  0.26079179  0.44154215     0.09200
H141        H  0.12656939  0.20590767  0.01171180     0.13700
H142        H  0.13819346  0.29904214  0.47084363    -0.00600
H143        H  0.05627812  0.24744079  0.50778825     0.14000
H144        H  0.09637980  0.21905116  0.42475286     0.13800
C145        C  0.46598560  0.38524692  0.26376051     0.85600
C146        C  0.49726958  0.36813632  0.25904457    -0.54700
C147        C  0.50017181  0.35356325  0.23121493     0.08500
C148        C  0.47148096  0.35667443  0.21047367     0.19400
C149        C  0.46256552  0.40704127  0.23442258    -0.55400
C150        C  0.46567768  0.39216022  0.20633922     0.08600
C151        C  0.44053091  0.35936818  0.25928052    -0.54900
C152        C  0.44272493  0.34535678  0.23070952     0.09200
H153        H  0.01598401  0.36799256  0.27620168     0.13700
H154        H  0.47458921  0.34382096  0.18824952    -0.00600
H155        H  0.45488965  0.43123252  0.23631920     0.14000
H156        H  0.41881601  0.35697016  0.27337794     0.13800
C157        C  0.36716895  0.20629579  0.45448211     0.85600
C158        C  0.33778213  0.21215906  0.43550381    -0.54700
C159        C  0.31949528  0.23624439  0.44544046     0.08500
C160        C  0.33322337  0.25361902  0.47383444     0.19400
C161        C  0.38467691  0.23858137  0.45205478    -0.55400
C162        C  0.36770498  0.26379390  0.46303181     0.08600
C163        C  0.35528603  0.20274103  0.48864532    -0.54900
C164        C  0.33797279  0.22710623  0.49926247     0.09200
H165        H  0.33284374  0.20031678  0.41392204     0.13700
H166        H  0.31769928  0.27291481  0.48137368    -0.00600
H167        H  0.40885858  0.24089911  0.44295787     0.14000
H168        H  0.36102608  0.18301822  0.00870307     0.13800
C169        C  0.23569770  0.02830296  0.34478311     0.85600
C170        C  0.25431907  0.02968448  0.37510544    -0.54700
C171        C  0.25487549  0.50181783  0.39293564     0.08500
C172        C  0.23496855  0.47508918  0.37867455     0.19400
C173        C  0.24997410  0.49961740  0.32817878    -0.55400
C174        C  0.24971199  0.47184967  0.34553549     0.08600
C175        C  0.20247028  0.01622639  0.35571071    -0.54900
C176        C  0.20137393  0.48861208  0.37361154     0.09200
H177        H  0.27013659  0.04943623  0.37952065     0.13700
H178        H  0.23525720  0.45240315  0.39215740    -0.00600
H179        H  0.25730371  0.49954047  0.30366074     0.14000
H180        H  0.18130401  0.02899388  0.34975305     0.13800
C181        C  0.10651337  0.27684971  0.38580874    -0.10100
C182        C  0.12881273  0.27555494  0.40979791     0.06100
C183        C  0.15988323  0.28700368  0.40222150    -0.03800
C184        C  0.16890035  0.29517796  0.37095274    -0.08300
C185        C  0.14733735  0.29369287  0.34663246     0.05200
C186        C  0.11543705  0.28661664  0.35478245    -0.03300
Br187      Br  0.08364968  0.29072087  0.32396619    -0.03000
H188        H  0.08211394  0.26986682  0.39110913     0.09100
H189        H  0.19366864  0.30028576  0.36519288     0.07200
Br190      Br  0.19248441  0.28922097  0.43223641    -0.03400
C191        C  0.13628181  0.27507640  0.04765248    -0.10100
C192        C  0.15410770  0.26210262  0.02291911     0.06100
C193        C  0.18598418  0.25446470  0.02814441    -0.03800
C194        C  0.19960483  0.26114569  0.05703740    -0.08300
C195        C  0.18115997  0.27273325  0.08207809     0.05200
C196        C  0.14926583  0.28000188  0.07692042    -0.03300
Br197      Br  0.12178582  0.29546121  0.10966621    -0.03000
H198        H  0.11139928  0.27959622  0.04498971     0.09100
H199        H  0.22397696  0.25498711  0.06071737     0.07200
Br200      Br  0.21066322  0.23120014  0.99856746    -0.03400
C201        C  0.29433557  0.27444909  0.40895352    -0.10100
C202        C  0.29244964  0.24559193  0.42577169     0.06100
C203        C  0.27120077  0.22209450  0.41570224    -0.03800
C204        C  0.25722258  0.22527512  0.38637547    -0.08300
C205        C  0.26325776  0.25219063  0.36704347     0.05200
C206        C  0.27944231  0.27805984  0.38007182    -0.03300
Br207      Br  0.28182717  0.31885318  0.35977650    -0.03000
H208        H  0.30961905  0.29322864  0.41679823     0.09100
H209        H  0.24351409  0.20568252  0.37781089     0.07200
Br210      Br  0.26363735  0.18355485  0.43974733    -0.03400
C211        C  0.33298013  0.23370390  0.09207816    -0.10100
C212        C  0.30227250  0.22191080  0.09948606     0.06100
C213        C  0.28374287  0.21155632  0.07467479    -0.03800
C214        C  0.29507206  0.21485087  0.04323665    -0.08300
C215        C  0.32533889  0.22769842  0.03581875     0.05200
C216        C  0.34497746  0.23538583  0.06085469    -0.03300
Br217      Br  0.38867016  0.24751746  0.05371922    -0.03000
H218        H  0.34755972  0.24212424  0.11066107     0.09100
H219        H  0.28036657  0.20691655  0.02454346     0.07200
Br220      Br  0.24245902  0.19338617  0.08289151    -0.03400
C221        C  0.27680412  0.39050700  0.31685435    -0.10100
C222        C  0.25345065  0.38437455  0.29498629     0.06100
C223        C  0.22998641  0.40800372  0.29026854    -0.03800
C224        C  0.23029680  0.43552313  0.30709828    -0.08300
C225        C  0.25258238  0.44105937  0.32961422     0.05200
C226        C  0.27581837  0.41788060  0.33503796    -0.03300
Br227      Br  0.30558422  0.42058189  0.36762700    -0.03000
H228        H  0.29509139  0.37341637  0.32082321     0.09100
H229        H  0.21212102  0.45285387  0.30299045     0.07200
Br230      Br  0.19507723  0.40623324  0.26219233    -0.03400
C231        C  0.24756740  0.06402542  0.29426029    -0.10100
C232        C  0.23549082  0.06058061  0.32571919     0.06100
C233        C  0.22322751  0.08830450  0.33926324    -0.03800
C234        C  0.22251832  0.11709370  0.32181180    -0.08300
C235        C  0.23442982  0.12038587  0.29043133     0.05200
C236        C  0.24738024  0.09304567  0.27698642    -0.03300
Br237      Br  0.26541621  0.09300202  0.23500503    -0.03000
H238        H  0.25772776  0.04446093  0.28224091     0.09100
H239        H  0.21275850  0.13735849  0.33341289     0.07200
Br240      Br  0.20757367  0.08917425  0.38215102    -0.03400
C241        C  0.37859908  0.30324787  0.18766763    -0.10100
C242        C  0.35464408  0.32588078  0.18904015     0.06100
C243        C  0.36154157  0.35626175  0.19927396    -0.03800
C244        C  0.39068688  0.36229547  0.21218706    -0.08300
C245        C  0.41320417  0.33829986  0.21478568     0.05200
C246        C  0.40794099  0.30930176  0.20062671    -0.03300
Br247      Br  0.43852372  0.27633743  0.20197042    -0.03000
H248        H  0.37315357  0.27955705  0.18022614     0.09100
H249        H  0.39527625  0.38540499  0.22150088     0.07200
Br250      Br  0.32983386  0.38821094  0.20117383    -0.03400
C251        C  0.06666980  0.29534694  0.22869187    -0.10100
C252        C  0.08863472  0.31152648  0.20851447     0.06100
C253        C  0.08039357  0.34031543  0.19394379    -0.03800
C254        C  0.05053381  0.35288881  0.20021598    -0.08300
C255        C  0.02924998  0.33750306  0.22166841     0.05200
C256        C  0.03721452  0.30837425  0.23569113    -0.03900
Br257      Br  0.00933449  0.28658068  0.26576357    -0.03000
H258        H  0.07322344  0.27354986  0.24058227     0.09100
H259        H  0.04452203  0.37548438  0.18961362     0.07200
Br260      Br  0.10981106  0.36383982  0.16675284    -0.03400
C261        C  0.21917804  0.43475485  0.12070972    -0.10100
C262        C  0.22849973  0.46032853  0.13882081     0.06100
C263        C  0.23648935  0.45402871  0.17044127    -0.03800
C264        C  0.23354323  0.42315092  0.18337050    -0.08300
C265        C  0.22288545  0.39804374  0.16543286     0.05200
C266        C  0.21596974  0.40411057  0.13371310    -0.03300
Br267      Br  0.20045569  0.37157572  0.10739775    -0.03000
H268        H  0.21363086  0.43850392  0.09632078     0.09100
H269        H  0.24060288  0.41855491  0.20725659     0.07200
Br270      Br  0.25424628  0.48565583  0.19645122    -0.03400
C271        C  0.19059291  0.08047473  0.16358720    -0.10100
C272        C  0.19888014  0.07826842  0.13145677     0.06100
C273        C  0.19513508  0.10549545  0.11146240    -0.03800
C274        C  0.18724800  0.13418584  0.12424074    -0.08300
C275        C  0.18415570  0.13676192  0.15652340     0.05200
C276        C  0.18333530  0.10960550  0.17611163    -0.03300
Br277      Br  0.17542507  0.11219167  0.22057086    -0.03000
H278        H  0.19156374  0.06051560  0.17972394     0.09100
H279        H  0.18721340  0.15526688  0.10922991     0.07200
Br280      Br  0.20358792  0.10735989  0.06687103    -0.03400
C281        C  0.45774648  0.44925970  0.13672805    -0.10100
C282        C  0.44501104  0.42926120  0.11439354     0.06100
C283        C  0.43531933  0.39862137  0.12344160    -0.03800
C284        C  0.44125164  0.38745008  0.15381638    -0.08300
C285        C  0.45697715  0.40643345  0.17551479     0.05200
C286        C  0.46462818  0.43805047  0.16670342    -0.03300
Br287      Br  0.98966648  0.46608912  0.19147387    -0.03000
H288        H  0.46561670  0.47297144  0.12962160     0.09100
H289        H  0.43449455  0.36330541  0.15970493     0.07200
Br290      Br  0.41690354  0.37052496  0.09429144    -0.03400
C291        C  0.44224808  0.39635531  0.31857259    -0.10100
C292        C  0.46486850  0.40359817  0.29418476     0.06100
C293        C  0.48737554  0.42819757  0.29895247    -0.03800
C294        C  0.48659605  0.44465750  0.32692697    -0.08300
C295        C  0.46416435  0.43692285  0.35078877     0.05200
C296        C  0.44185713  0.41276699  0.34652362    -0.03300
Br297      Br  0.41112918  0.40063549  0.37900547    -0.03000
H298        H  0.42516174  0.37742182  0.31704844     0.09100
H299        H  0.00518521  0.46268356  0.33083425     0.07200
Br300      Br  0.02212748  0.43919117  0.26965430    -0.03400
C301        C  0.13225817  0.45103052  0.42438014    -0.10100
C302        C  0.10640012  0.45770341  0.40559671     0.06100
C303        C  0.11267836  0.46905260  0.37466888    -0.03800
C304        C  0.14385036  0.47659237  0.36418837    -0.08300
C305        C  0.16982681  0.47323779  0.38406430     0.05200
C306        C  0.16363727  0.45790705  0.41383273    -0.03300
Br307      Br  0.19577592  0.94665951  0.44248035    -0.03000
H308        H  0.12819485  0.94226696  0.44831350     0.09100
H309        H  0.14753305  0.48642753  0.34059352     0.07200
Br310      Br  0.07882863  0.47687266  0.34677733    -0.03400
C311        C  0.31628773  0.48282233  0.45465141    -0.10100
C312        C  0.34359521  0.48101580  0.43520794     0.06100
C313        C  0.34084565  0.48507860  0.40228721    -0.03800
C314        C  0.31180760  0.49210024  0.38985077    -0.08300
C315        C  0.28456359  0.49431619  0.40902251     0.05200
C316        C  0.28692733  0.48978584  0.44177877    -0.03300
Br317      Br  0.25182962  0.99691471  0.46988554    -0.03000
H318        H  0.31811964  0.48088563  0.47994872     0.09100
H319        H  0.31044579  0.49559385  0.36462823     0.07200
Br320      Br  0.37544993  0.48145136  0.37209170    -0.03400
C321        C  0.14639304  0.01347092  0.01465086    -0.10100
C322        C  0.12257984  0.99523533  0.03056653     0.06100
C323        C  0.13129877  0.97515377  0.05614657    -0.03800
C324        C  0.16235217  0.97592705  0.06639709    -0.08300
C325        C  0.18464423  0.99769544  0.05335458     0.05200
C326        C  0.17684832  0.01539965  0.02629318    -0.03300
Br327      Br  0.20418433  0.04849554  0.00942451    -0.03000
H328        H  0.13927970  0.02658941  0.49165340     0.09100
H329        H  0.16733343  0.96332925  0.08807114     0.07200
Br330      Br  0.10227115  0.94896776  0.08172958    -0.03400
C331        C  0.33937065  0.05180380  0.05030700    -0.10100
C332        C  0.35821273  0.02751271  0.06188579     0.06100
C333        C  0.34482363  0.50540465  0.08446175    -0.03800
C334        C  0.31254547  0.50637427  0.09255093    -0.08300
C335        C  0.29321733  0.02947455  0.07953668     0.05200
C336        C  0.30719803  0.05319769  0.05921176    -0.03300
Br337      Br  0.28350388  0.08678319  0.04087156    -0.03000
H338        H  0.34918819  0.06862246  0.03283740     0.09100
H339        H  0.30246687  0.48905067  0.10938156     0.07200
Br340      Br  0.36972125  0.47396453  0.10511942    -0.03400
C341        C  0.42909135  0.14186109  0.45780418    -0.10100
C342        C  0.41273862  0.11603010  0.44590824     0.06100
C343        C  0.38380809  0.12096468  0.43147573    -0.03800
C344        C  0.37082686  0.15123526  0.43129302    -0.08300
C345        C  0.38597824  0.17701586  0.44582597     0.05200
C346        C  0.41570465  0.17150789  0.45918757    -0.03300
Br347      Br  0.44147684  0.20064356  0.98899108    -0.03000
H348        H  0.45155517  0.13825966  0.46887085     0.09100
H349        H  0.34730445  0.15311258  0.42243407     0.07200
Br350      Br  0.35903348  0.08676090  0.41576622    -0.03400
C351        C  0.39346810  0.34600112  0.49176795    -0.10100
C352        C  0.41866645  0.35456172  0.47061085     0.06100
C353        C  0.42570095  0.33364807  0.44612282    -0.03800
C354        C  0.40781242  0.30554046  0.44348934    -0.08300
C355        C  0.38301315  0.29644288  0.46521011     0.05200
C356        C  0.37584226  0.31783026  0.48946613    -0.03300
Br357      Br  0.34353005  0.31132140  0.52178365    -0.03000
H358        H  0.38735917  0.36135789  0.51087498     0.09100
H359        H  0.41363164  0.29063821  0.42399069     0.07200
Br360      Br  0.45917354  0.34150632  0.41512250    -0.03400
C361        C  0.07727385  0.13191231  0.47351438    -0.10100
C362        C  0.04756791  0.12779448  0.48948684     0.06100
C363        C  0.03376186  0.15462147  0.50270707    -0.03800
C364        C  0.04883924  0.18429465  0.49884800    -0.08300
C365        C  0.07853823  0.18870408  0.48257677     0.05200
C366        C  0.09261579  0.16144399  0.47008335    -0.03300
Br367      Br  0.13281203  0.16239522  0.44745070    -0.03000
H368        H  0.08896434  0.11195507  0.46316537     0.09100
H369        H  0.03634701  0.20341564  0.50922713     0.07200
Br370      Br  0.49500151  0.15306326  0.52785821    -0.03400
C371        C  0.09459410  0.33404522  0.00944639    -0.10100
C372        C  0.07824488  0.30802676  0.50088184     0.06100
C373        C  0.04522388  0.31327845  0.50078864    -0.03800
C374        C  0.03322096  0.34165030  0.51143647    -0.08300
C375        C  0.05049218  0.36864905  0.02030324     0.05200
C376        C  0.08322264  0.36322947  0.01895135    -0.03300
Br377      Br  0.11370033  0.39624622  0.02409053    -0.03000
H378        H  0.11987967  0.33055042  0.00922911     0.09100
H379        H  0.00802764  0.34562794  0.50963457     0.07200
Br380      Br  0.01517945  0.28640608  0.48070940    -0.03400
C381        C  0.45770027  0.08684399  0.15879633    -0.10100
C382        C  0.48298439  0.08634438  0.17912813     0.06100
C383        C  0.00964845  0.06804991  0.17047533    -0.03800
C384        C  0.01092338  0.05177623  0.14196734    -0.08300
C385        C  0.48588941  0.05261631  0.12146935     0.05200
C386        C  0.45858046  0.06991455  0.13081830    -0.03300
Br387      Br  0.42008476  0.06958186  0.10806277    -0.03000
H388        H  0.43645415  0.09939927  0.16539244     0.09100
H389        H  0.03200392  0.03885146  0.13565882     0.07200
Br390      Br  0.04570910  0.06468012  0.19646053    -0.03400
C391        C  0.97931842  0.10047253  0.32640036    -0.10100
C392        C  0.48580651  0.08272898  0.29963286     0.06100
C393        C  0.50670785  0.05671219  0.30313828    -0.03800
C394        C  0.51813589  0.04845061  0.33272980    -0.08300
C395        C  0.51060029  0.06593101  0.35914633     0.05200
C396        C  0.99154465  0.09255707  0.35540098    -0.03300
Br397      Br  0.97869337  0.11690236  0.39080060    -0.03000
H398        H  0.96576907  0.12186885  0.32496901     0.09100
H399        H  0.53131716  0.02689349  0.33556699     0.07200
Br400      Br  0.52143180  0.03007763  0.27033013    -0.03400
C401        C  0.40466280  0.16667142  0.21107922    -0.10100
C402        C  0.42075770  0.16335357  0.23925239     0.06100
C403        C  0.40909306  0.18063226  0.26533542    -0.03800
C404        C  0.38075827  0.19784789  0.26367704    -0.08300
C405        C  0.36342330  0.19918561  0.23615590     0.05200
C406        C  0.37669124  0.18440214  0.20924509    -0.03300
Br407      Br  0.35841857  0.18845564  0.16864056    -0.03000
H408        H  0.41336480  0.15466462  0.19048725     0.09100
H409        H  0.37182926  0.20956277  0.28435531     0.07200
Br410      Br  0.43149606  0.18330118  0.30368096    -0.03400
C411        C  0.04089918  0.18304729  0.26188571    -0.10100
C412        C  0.03241488  0.16664217  0.23482997     0.06100
C413        C  0.05567901  0.16226346  0.21130827    -0.03800
C414        C  0.08709719  0.17057468  0.21656798    -0.08300
C415        C  0.09607962  0.18536229  0.24437625     0.05200
C416        C  0.07241886  0.19172114  0.26707070    -0.03300
Br417      Br  0.08188149  0.21082215  0.30585888    -0.03000
H418        H  0.02330080  0.18622739  0.28056445     0.09100
H419        H  0.10464510  0.16650858  0.19804606     0.07200
Br420      Br  0.04586230  0.14548375  0.17145241    -0.03400
C421        C  0.48608019  0.09903739  0.76910094     0.85600
C422        C  0.45590552  0.11906130  0.76683066    -0.54700
C423        C  0.45497706  0.13901941  0.74102950     0.08500
C424        C  0.98446045  0.13545328  0.71812521     0.19400
C425        C  0.48639290  0.08036689  0.73870208    -0.55400
C426        C  0.48661182  0.09882868  0.71172198     0.08600
C427        C  0.01324046  0.12220460  0.76478570    -0.54900
C428        C  0.01281963  0.14195849  0.73954627     0.09200
H429        H  0.43677555  0.11770826  0.78447355     0.13700
H430        H  0.98422092  0.15099500  0.69673071    -0.00600
H431        H  0.48569864  0.05481283  0.73811777     0.14000
H432        H  0.03239333  0.12275865  0.78133198     0.13800
O433        O  0.03334242  0.04966551  0.91073378    -0.81100
O434        O  0.38050089  0.46862575  0.97289402    -0.82600
O435        O  0.45518755  0.47699612  0.88725915    -0.79600
O436        O  0.43080239  0.06557834  0.93244485    -0.78000
O437        O  0.43638438  0.08359430  0.98213045    -0.79800
O438        O  0.48518005  0.43446259  0.90090628    -0.80700
O439        O  0.39628155  0.49956607  0.93026297    -0.82100
O440        O  0.48307353  0.04155318  0.89472990    -0.82300
Eu441      Eu  0.45236724  0.01180014  0.93309707     2.39200
O442        O  0.43068698  0.01408815  0.98416825    -0.89900
O443        O  0.50334416  0.49121046  0.93277265    -0.93500
C444        C  0.51122993  0.05278568  0.89106868     1.01200
C445        C  0.37535586  0.48338333  0.94647466     1.01000
C446        C  0.46882187  0.45060818  0.88147029     1.01000
C447        C  0.42841295  0.08680599  0.95351538     0.98800
H448        H  0.43515199  0.44686382  0.94185634     0.28600
O449        O  0.44867118  0.45979935  0.95428238    -1.02200
H450        H  0.48725055  0.06441460  0.95278892     0.28600
O451        O  0.48541669  0.04355117  0.96243328    -1.04800
O452        O  0.42889755  0.43857907  0.56133645    -0.82000
O453        O  0.08360256  0.01321557  0.99465856    -0.81600
O454        O  0.46337509  0.39318924  0.96138275    -0.80000
O455        O  0.41092320  0.04304266  0.53968087    -0.83300
O456        O  0.50458306  0.09056334  0.50503278    -0.81200
O457        O  0.05459728  0.44400980  0.92651960    -0.79800
O458        O  0.03663569  0.41902026  0.53504067    -0.81400
O459        O  0.00572285  0.01035337  0.58398668    -0.83300
O460        O  0.02965311  0.40391502  0.98575372    -0.80000
O461        O  0.47706896  0.05273684  0.56831813    -0.82700
O462        O  0.42137411  0.40673980  0.99292309    -0.78400
O463        O  0.07378166  0.49447811  0.93132934    -0.78500
O464        O  0.04221519  0.07753154  0.97739936    -0.78100
O465        O  0.39169480  0.49181181  0.53646987    -0.81600
O466        O  0.47986145  0.44558548  0.57697901    -0.81000
O467        O  0.06816118  0.48441551  0.53960329    -0.79400
Eu468      Eu  0.42848192  0.46063192  0.50699977     2.39800
Eu469      Eu  0.03600533  0.02282008  0.96331708     2.39600
Eu470      Eu  0.50049967  0.44011492  0.95479055     2.38400
Eu471      Eu  0.46502441  0.04562000  0.51367826     2.39900
Eu472      Eu  0.01215365  0.47308621  0.53782981     2.39800
O473        O  0.01647453  0.02462148  0.51430132    -0.93800
O474        O  0.47971975  0.44261170  0.00690993    -0.92700
C475        C  0.45072610  0.43738868  0.58186188     1.01400
C476        C  0.08928621  0.99646933  0.51984944     1.00100
C477        C  0.43650965  0.38673301  0.97607209     0.99500
C478        C  0.38973269  0.02090542  0.54544198     1.01500
C479        C  0.02646968  0.09901578  0.99149123     1.00400
C480        C  0.07613665  0.46616701  0.92162009     0.99300
C481        C  0.03980601  0.39841229  0.51307506     0.99300
C482        C  0.49112250  0.03664298  0.58958818     1.02000
H483        H  0.05283705  0.46252364  0.98614306     0.29300
O484        O  0.03219870  0.47198488  0.98586437    -1.05900
H485        H  0.45241821  0.49585422  0.55658301     0.31400
O486        O  0.46146176  0.49404497  0.53561704    -1.08500
C487        C  0.21407787  0.04546963  0.61557844     0.85600
C488        C  0.19529524  0.03647315  0.58742460    -0.54700
C489        C  0.20705156  0.01206157  0.57108602     0.08500
C490        C  0.23693766  0.49735365  0.58497224     0.19400
C491        C  0.21474303  0.01440889  0.63562264    -0.55400
C492        C  0.22744564  0.48889721  0.61967434     0.08600
C493        C  0.24827680  0.05053370  0.60339026    -0.54900
C494        C  0.26027471  0.02595813  0.58735287     0.09200
H495        H  0.17285080  0.04732263  0.58201637     0.13700
H496        H  0.24671057  0.47733677  0.57166942    -0.00600
H497        H  0.20492673  0.01157785  0.65929511     0.14000
H498        H  0.26215985  0.07170300  0.60770809     0.13800
O499        O  0.15352048  0.20069524  0.76673434    -0.81100
O500        O  0.22521882  0.28325694  0.61993909    -0.82600
O501        O  0.13426308  0.27377300  0.69226427    -0.79600
O502        O  0.18066009  0.18653518  0.66904649    -0.78000
O503        O  0.22824703  0.16400066  0.68008323    -0.79800
O504        O  0.14669278  0.31568127  0.72238241    -0.80700
O505        O  0.18080241  0.25422539  0.63391810    -0.82100
O506        O  0.14050650  0.21269394  0.71622423    -0.82300
Eu507      Eu  0.18188671  0.23995037  0.68934095     2.39200
O508        O  0.23413437  0.23524268  0.67035471    -0.89900
O509        O  0.17840456  0.25801202  0.74079184    -0.93500
C510        C  0.13458659  0.19991250  0.74317246     1.01200
C511        C  0.19844780  0.26998473  0.61375649     1.01000
C512        C  0.12743335  0.29979986  0.70598061     1.01000
C513        C  0.19993628  0.16330224  0.66973761     0.98800
H514        H  0.19096551  0.30412656  0.67272462     0.28600
O515        O  0.20300244  0.29086210  0.68661418    -1.02200
H516        H  0.19970497  0.18607799  0.72562539     0.28600
O517        O  0.20986467  0.20661741  0.72364076    -1.04800
O518        O  0.30958715  0.30997021  0.67148177    -0.82000
O519        O  0.23866236  0.23325608  0.82306312    -0.81600
O520        O  0.21059464  0.35503751  0.70123089    -0.80000
O521        O  0.28675438  0.20454013  0.64953585    -0.83300
O522        O  0.25628699  0.15600648  0.74303598    -0.81200
O523        O  0.17248740  0.30521449  0.79235430    -0.79800
O524        O  0.27812058  0.33055043  0.77489892    -0.81400
O525        O  0.33164229  0.23815190  0.74851092    -0.83300
O526        O  0.22679230  0.34491779  0.76923565    -0.80000
O527        O  0.31823180  0.19679780  0.71777577    -0.82700
O528        O  0.24374683  0.34193339  0.66024220    -0.78400
O529        O  0.17606987  0.25440074  0.81171114    -0.78500
O530        O  0.22269611  0.17066186  0.78282683    -0.78100
O531        O  0.28598259  0.25593674  0.63120447    -0.81600
O532        O  0.32334557  0.30383486  0.72294353    -0.81000
O533        O  0.28394838  0.26165287  0.81009563    -0.79400
Eu534      Eu  0.25607414  0.28654608  0.66852303     2.39800
Eu535      Eu  0.20775955  0.22546802  0.77449854     2.39600
Eu536      Eu  0.20063340  0.30855351  0.73845279     2.38400
Eu537      Eu  0.26247004  0.20216929  0.70472464     2.39900
Eu538      Eu  0.28384798  0.27453357  0.75371177     2.39800
O539        O  0.26124085  0.22291949  0.75594169    -0.93800
O540        O  0.25388600  0.30636906  0.71976926    -0.92700
C541        C  0.32865915  0.31299147  0.69428317     1.01400
C542        C  0.26463753  0.24775970  0.83030551     1.00100
C543        C  0.22663949  0.36167379  0.67530340     0.99500
C544        C  0.29273509  0.22671411  0.62824190     1.01500
C545        C  0.24032003  0.15022548  0.76922303     1.00400
C546        C  0.16740798  0.28317948  0.81405809     0.99300
C547        C  0.25481493  0.35045166  0.77761632     0.99300
C548        C  0.33850838  0.21247579  0.73343023     1.02000
H549        H  0.23015657  0.28546693  0.79191603     0.29300
O550        O  0.23064854  0.27634316  0.77141899    -1.05900
H551        H  0.30586206  0.25230276  0.69435884     0.31400
O552        O  0.28444270  0.25358393  0.70279874    -1.08500
C553        C  0.09058571  0.22410941  0.97637584     0.85600
C554        C  0.12729745  0.22254682  0.49562333    -0.54700
C555        C  0.14262908  0.25131159  0.49414058     0.08500
C556        C  0.12188028  0.27798577  0.97200978     0.19400
C557        C  0.07207015  0.25259383  0.98852529    -0.55400
C558        C  0.08776988  0.28097618  0.98579659     0.08600
C559        C  0.10047896  0.23467927  0.94239199    -0.54900
C560        C  0.11764565  0.26238154  0.93979264     0.09200
H561        H  0.13397249  0.20381690  0.51196936     0.13700
H562        H  0.13559435  0.30049594  0.96969421    -0.00600
H563        H  0.04895430  0.25071565  0.99968859     0.14000
H564        H  0.09424050  0.22147191  0.92195537     0.13800
C565        C  0.47226059  0.38640476  0.76269981     0.85600
C566        C  0.50432254  0.37091975  0.75662388    -0.54700
C567        C  0.50686240  0.35628059  0.72868101     0.08500
C568        C  0.47703251  0.35834034  0.70905716     0.19400
C569        C  0.46696556  0.40822288  0.73373021    -0.55400
C570        C  0.46961562  0.39364487  0.70542071     0.08600
C571        C  0.44768582  0.35950915  0.75872577    -0.54900
C572        C  0.44908809  0.34591781  0.73000515     0.09200
H573        H  0.02319667  0.37129037  0.77342578     0.13700
H574        H  0.47986861  0.34573107  0.68667377    -0.00600
H575        H  0.45820395  0.43197449  0.73614938     0.14000
H576        H  0.42625250  0.35657713  0.77316281     0.13800
C577        C  0.36992875  0.20651189  0.95966957     0.85600
C578        C  0.34194147  0.21222798  0.93888249    -0.54700
C579        C  0.32293613  0.23606340  0.94750016     0.08500
C580        C  0.33485125  0.25385145  0.97653442     0.19400
C581        C  0.38744119  0.23861191  0.95784094    -0.55400
C582        C  0.36989639  0.26388567  0.96744967     0.08600
C583        C  0.35622768  0.20311931  0.99324165    -0.54900
C584        C  0.33811606  0.22753948  0.00265176     0.09200
H585        H  0.33875891  0.20044799  0.91685319     0.13700
H586        H  0.31902350  0.27333696  0.98296137    -0.00600
H587        H  0.41186995  0.24094847  0.94957002     0.14000
H588        H  0.36069243  0.18246354  0.50365411     0.13800
C589        C  0.23665838  0.02680651  0.83929590     0.85600
C590        C  0.25606354  0.02767708  0.86909541    -0.54700
C591        C  0.25605162  0.50028483  0.88631613     0.08500
C592        C  0.23441590  0.47427159  0.87297026     0.19400
C593        C  0.24916629  0.49792297  0.82196932    -0.55400
C594        C  0.24787807  0.47030729  0.83943211     0.08600
C595        C  0.20299857  0.01616494  0.85072703    -0.54900
C596        C  0.20129457  0.48922101  0.86860102     0.09200
H597        H  0.27252891  0.04698409  0.87320746     0.13700
H598        H  0.23346760  0.45181129  0.88693300    -0.00600
H599        H  0.25708163  0.49768918  0.79763525     0.14000
H600        H  0.18211790  0.02947347  0.84490182     0.13800
C601        C  0.10893336  0.27920386  0.88315322    -0.10100
C602        C  0.12975088  0.27586274  0.90830762     0.06100
C603        C  0.16228705  0.28212701  0.90178058    -0.03800
C604        C  0.17347821  0.28922482  0.87091347    -0.08300
C605        C  0.15307215  0.29007746  0.84551414     0.05200
C606        C  0.12032841  0.28618700  0.85211102    -0.03300
Br607      Br  0.09084994  0.28767716  0.81884649    -0.03000
H608        H  0.08380930  0.27487573  0.88739495     0.09100
H609        H  0.19883700  0.29106682  0.86627455     0.07200
Br610      Br  0.19361609  0.27643914  0.93264534    -0.03400
C611        C  0.14083975  0.27132417  0.54821725    -0.10100
C612        C  0.15938215  0.26086791  0.52275602     0.06100
C613        C  0.19211220  0.25676745  0.52669896    -0.03800
C614        C  0.20548079  0.26281478  0.55583410    -0.08300
C615        C  0.18637747  0.27189295  0.58156063     0.05200
C616        C  0.15390760  0.27702051  0.57714734    -0.03300
Br617      Br  0.12573668  0.29098652  0.61014010    -0.03000
H618        H  0.11556308  0.27374680  0.54624320     0.09100
H619        H  0.23035804  0.25828441  0.55897827     0.07200
Br620      Br  0.21890483  0.24033768  0.49420816    -0.03400
C621        C  0.30335692  0.27203200  0.90621645    -0.10100
C622        C  0.29796129  0.24502388  0.92528720     0.06100
C623        C  0.27675412  0.22152714  0.91503382    -0.03800
C624        C  0.26461782  0.22352818  0.88476735    -0.08300
C625        C  0.27316998  0.24881971  0.86409813     0.05200
C626        C  0.29117340  0.27413576  0.87601738    -0.03300
Br627      Br  0.30097322  0.31211188  0.85237797    -0.03000
H628        H  0.31962738  0.29022237  0.91355885     0.09100
H629        H  0.25019371  0.20418615  0.87673984     0.07200
Br630      Br  0.26718971  0.18405773  0.94014207    -0.03400
C631        C  0.33699197  0.23231858  0.58851849    -0.10100
C632        C  0.30694605  0.21953493  0.59700312     0.06100
C633        C  0.28772061  0.20859721  0.57301105    -0.03800
C634        C  0.29752491  0.21254760  0.54128926    -0.08300
C635        C  0.32689931  0.22669257  0.53279653     0.05200
C636        C  0.34750254  0.23477397  0.55690608    -0.03300
Br637      Br  0.39042428  0.24863869  0.54800252    -0.03000
H638        H  0.35207748  0.24109524  0.60654093     0.09100
H639        H  0.28229274  0.20423002  0.52317526     0.07200
Br640      Br  0.24730175  0.18923910  0.58249012    -0.03400
C641        C  0.27568779  0.38746514  0.81751966    -0.10100
C642        C  0.25793086  0.38252766  0.79085391     0.06100
C643        C  0.23753463  0.40725291  0.78093430    -0.03800
C644        C  0.23674949  0.43549133  0.79639820    -0.08300
C645        C  0.25277149  0.43959273  0.82405274     0.05200
C646        C  0.27156718  0.41463752  0.83538435    -0.03300
Br647      Br  0.28941016  0.41385889  0.87600796    -0.03000
H648        H  0.29078338  0.36917645  0.82599413     0.09100
H649        H  0.22112530  0.45376283  0.78802316     0.07200
Br650      Br  0.20562676  0.40469837  0.74984729    -0.03400
C651        C  0.25164285  0.06174134  0.78928563    -0.10100
C652        C  0.23823877  0.05873860  0.82029536     0.06100
C653        C  0.22715863  0.08677528  0.83392439    -0.03800
C654        C  0.22871982  0.11559566  0.81693943    -0.08300
C655        C  0.24137712  0.11839254  0.78588099     0.05200
C656        C  0.25325903  0.09075839  0.77226121    -0.03300
Br657      Br  0.27153611  0.09013180  0.73034645    -0.03000
H658        H  0.26142601  0.04194198  0.77738742     0.09100
H659        H  0.21981355  0.13620531  0.82859384     0.07200
Br660      Br  0.20988111  0.08812122  0.87620224    -0.03400
C661        C  0.38456939  0.30498061  0.68561659    -0.10100
C662        C  0.35997995  0.32664509  0.68876678     0.06100
C663        C  0.36584898  0.35598278  0.70192383    -0.03800
C664        C  0.39501257  0.36188566  0.71508004    -0.08300
C665        C  0.41868436  0.33871460  0.71514472     0.05200
C666        C  0.41374187  0.31066939  0.69905703    -0.03300
Br667      Br  0.44428400  0.27782484  0.69821744    -0.03000
H668        H  0.37975368  0.28186990  0.67635683     0.09100
H669        H  0.39885047  0.38426566  0.72617584     0.07200
Br670      Br  0.33251765  0.38604652  0.70689261    -0.03400
C671        C  0.07010453  0.29411365  0.71912638    -0.10100
C672        C  0.09499796  0.31211573  0.70483430     0.06100
C673        C  0.08974546  0.34393543  0.69607908    -0.03800
C674        C  0.06034828  0.35758115  0.70289437    -0.08300
C675        C  0.03602322  0.33998920  0.71873188     0.05200
C676        C  0.04094130  0.30791462  0.72645488    -0.03900
Br677      Br  0.00970242  0.28285819  0.74975373    -0.03000
H678        H  0.07410749  0.26991172  0.72676452     0.09100
H679        H  0.05684358  0.38227606  0.69684087     0.07200
Br680      Br  0.12254208  0.36968089  0.67557783    -0.03400
C681        C  0.21823193  0.43035892  0.61695701    -0.10100
C682        C  0.22898111  0.45619310  0.63397655     0.06100
C683        C  0.24009041  0.45019019  0.66454981    -0.03800
C684        C  0.23918134  0.41934405  0.67754655    -0.08300
C685        C  0.22594962  0.39417985  0.66146397     0.05200
C686        C  0.21570542  0.39989448  0.63069948    -0.03300
Br687      Br  0.19700671  0.36702043  0.60687903    -0.03000
H688        H  0.21116465  0.43375063  0.59299006     0.09100
H689        H  0.24973767  0.41488151  0.69999976     0.07200
Br690      Br  0.25921697  0.48237596  0.68889964    -0.03400
C691        C  0.19238345  0.07686328  0.66182887    -0.10100
C692        C  0.20119693  0.07532860  0.62970275     0.06100
C693        C  0.19991209  0.10343904  0.61064524    -0.03800
C694        C  0.19341276  0.13199421  0.62424303    -0.08300
C695        C  0.19012320  0.13375626  0.65656493     0.05200
C696        C  0.18735178  0.10607057  0.67538063    -0.03300
Br697      Br  0.17879704  0.10763349  0.71982414    -0.03000
H698        H  0.19147740  0.05619608  0.67718129     0.09100
H699        H  0.19459906  0.15347951  0.60986385     0.07200
Br700      Br  0.21082269  0.10652020  0.56648251    -0.03400
C701        C  0.45455875  0.45005342  0.63660231    -0.10100
C702        C  0.44312310  0.42893069  0.61466113     0.06100
C703        C  0.43528867  0.39795166  0.62416494    -0.03800
C704        C  0.44279448  0.38746674  0.65430914    -0.08300
C705        C  0.45829946  0.40745152  0.67528779     0.05200
C706        C  0.46326973  0.43953338  0.66627191    -0.03300
Br707      Br  0.98688522  0.46903652  0.68983576    -0.03000
H708        H  0.46067230  0.47413654  0.62910214     0.09100
H709        H  0.43777901  0.36300560  0.66033055     0.07200
Br710      Br  0.41775516  0.36848334  0.59578111    -0.03400
C711        C  0.44911356  0.39427753  0.81848311    -0.10100
C712        C  0.47037216  0.40411869  0.79365341     0.06100
C713        C  0.49015461  0.43091389  0.79842749    -0.03800
C714        C  0.48753016  0.44732652  0.82641232    -0.08300
C715        C  0.46611048  0.43729317  0.85042007     0.05200
C716        C  0.44685869  0.41062015  0.84638795    -0.03300
Br717      Br  0.41768566  0.39499190  0.87890622    -0.03000
H718        H  0.43464992  0.37325316  0.81750279     0.09100
H719        H  0.00373103  0.46696968  0.83019067     0.07200
Br720      Br  0.02320544  0.44494594  0.76915764    -0.03400
C721        C  0.13367133  0.45765581  0.92447063    -0.10100
C722        C  0.10720562  0.46001469  0.90554578     0.06100
C723        C  0.11254402  0.46724527  0.87331520    -0.03800
C724        C  0.14334315  0.47521594  0.86140424    -0.08300
C725        C  0.16977538  0.47534017  0.88099704     0.05200
C726        C  0.16453010  0.46446465  0.91253645    -0.03300
Br727      Br  0.19723546  0.95764214  0.94153196    -0.03000
H728        H  0.12987155  0.95102927  0.94913138     0.09100
H729        H  0.14647852  0.48216871  0.83682354     0.07200
Br730      Br  0.07798726  0.46763424  0.84525609    -0.03400
C731        C  0.31675227  0.49075069  0.95063454    -0.10100
C732        C  0.34365497  0.48252069  0.93270569     0.06100
C733        C  0.34092598  0.47936120  0.89994155    -0.03800
C734        C  0.31211032  0.48464562  0.88585740    -0.08300
C735        C  0.28514496  0.49263911  0.90359964     0.05200
C736        C  0.28790030  0.49650467  0.93611280    -0.03300
Br737      Br  0.25405851  0.00978578  0.96200316    -0.03000
H738        H  0.31875279  0.49501687  0.97546434     0.09100
H739        H  0.31085281  0.48286012  0.86059992     0.07200
Br740      Br  0.37587836  0.46867040  0.87257898    -0.03400
C741        C  0.14588128  0.01179748  0.51146682    -0.10100
C742        C  0.12287334  0.99354836  0.52848304     0.06100
C743        C  0.13261236  0.97429695  0.55421793    -0.03800
C744        C  0.16403550  0.97541711  0.56308347    -0.08300
C745        C  0.18550516  0.99743226  0.54916519     0.05200
C746        C  0.17647947  0.01492499  0.52233325    -0.03300
Br747      Br  0.20154615  0.04933999  0.50451418    -0.03000
H748        H  0.14066765  0.02878955  0.99491766     0.09100
H749        H  0.16978666  0.96341315  0.58482186     0.07200
Br750      Br  0.10474016  0.94934752  0.58216773    -0.03400
C751        C  0.33875747  0.04827152  0.54581375    -0.10100
C752        C  0.35928991  0.02784875  0.56121587     0.06100
C753        C  0.34660511  0.50710443  0.58490659    -0.03800
C754        C  0.31430340  0.50680069  0.59280219    -0.08300
C755        C  0.29394466  0.02616932  0.57696848     0.05200
C756        C  0.30622517  0.04723692  0.55317485    -0.03300
Br757      Br  0.27950594  0.07222924  0.52737137    -0.03000
H758        H  0.34757686  0.06302169  0.52613496     0.09100
H759        H  0.30517051  0.49107540  0.61159200     0.07200
Br760      Br  0.37258604  0.47779530  0.60706651    -0.03400
C761        C  0.43375353  0.14359609  0.95766294    -0.10100
C762        C  0.41697597  0.11806361  0.94558539     0.06100
C763        C  0.38644734  0.12222821  0.93497012    -0.03800
C764        C  0.37262822  0.15165848  0.93758288    -0.08300
C765        C  0.38866999  0.17747457  0.95104480     0.05200
C766        C  0.41945858  0.17247958  0.96212726    -0.03300
Br767      Br  0.43734995  0.20070921  0.48518556    -0.03000
H768        H  0.45696278  0.13985374  0.96717326     0.09100
H769        H  0.34796559  0.15281174  0.93187917     0.07200
Br770      Br  0.36067255  0.08723161  0.92246585    -0.03400
C771        C  0.39514949  0.34664914  0.99460222    -0.10100
C772        C  0.42073036  0.35472738  0.97360344     0.06100
C773        C  0.42856025  0.33287490  0.95020832    -0.03800
C774        C  0.41054890  0.30487230  0.94784286    -0.08300
C775        C  0.38514007  0.29651220  0.96910925     0.05200
C776        C  0.37756833  0.31836901  0.99270732    -0.03300
Br777      Br  0.34451319  0.31209912  0.02430704    -0.03000
H778        H  0.38856909  0.36254222  0.01310626     0.09100
H779        H  0.41680528  0.28943860  0.92889839     0.07200
Br780      Br  0.46343957  0.33900221  0.92048031    -0.03400
C781        C  0.06835452  0.13580712  0.96884348    -0.10100
C782        C  0.04147988  0.13141086  0.98915254     0.06100
C783        C  0.03105499  0.15763567  0.00610303    -0.03800
C784        C  0.04669943  0.18705150  0.00161526    -0.08300
C785        C  0.07300388  0.19178514  0.98021761     0.05200
C786        C  0.08442595  0.16477011  0.96500003    -0.03300
Br787      Br  0.12316896  0.16417297  0.94003907    -0.03000
H788        H  0.07777915  0.11624636  0.95587449     0.09100
H789        H  0.03864760  0.20545201  0.01666281     0.07200
Br790      Br  0.49761157  0.15499377  0.03715408    -0.03400
C791        C  0.09819767  0.33238819  0.51104318    -0.10100
C792        C  0.07410685  0.31072853  0.99819507     0.06100
C793        C  0.04111549  0.31657957  0.99914100    -0.03800
C794        C  0.02978405  0.34408299  0.01245331    -0.08300
C795        C  0.05326950  0.36693817  0.51878400     0.05200
C796        C  0.08615458  0.36199091  0.51864075    -0.03300
Br797      Br  0.11601168  0.39561455  0.52378411    -0.03000
H798        H  0.12352886  0.32918424  0.51149836     0.09100
H799        H  0.00462360  0.34866462  0.01144495     0.07200
Br800      Br  0.01034928  0.29293967  0.97653239    -0.03400
C801        C  0.46280460  0.08411861  0.66090537    -0.10100
C802        C  0.48908666  0.08387422  0.67998688     0.06100
C803        C  0.01573308  0.06648449  0.66975472    -0.03800
C804        C  0.01571987  0.05012166  0.64122441    -0.08300
C805        C  0.48956343  0.05065057  0.62191939     0.05200
C806        C  0.46267230  0.06787693  0.63251963    -0.03300
Br807      Br  0.42381326  0.06944114  0.61039455    -0.03000
H808        H  0.44178802  0.09650486  0.66851852     0.09100
H809        H  0.03670184  0.03757700  0.63384167     0.07200
Br810      Br  0.05377569  0.06537842  0.69306175    -0.03400
C811        C  0.98380472  0.10174084  0.82710740    -0.10100
C812        C  0.49153679  0.08311451  0.80105202     0.06100
C813        C  0.51455052  0.05916615  0.80551571    -0.03800
C814        C  0.52535516  0.05211413  0.83558481    -0.08300
C815        C  0.51594076  0.06981512  0.86127099     0.05200
C816        C  0.99659940  0.09593695  0.85628520    -0.03300
Br817      Br  0.98629542  0.12375143  0.88980028    -0.03000
H818        H  0.96976618  0.12271727  0.82472161     0.09100
H819        H  0.54000033  0.03163945  0.83925559     0.07200
Br820      Br  0.53475080  0.03597946  0.77271866    -0.03400
C821        C  0.41256159  0.16560527  0.70933861    -0.10100
C822        C  0.42847230  0.16264011  0.73765023     0.06100
C823        C  0.41725227  0.18095704  0.76313750    -0.03800
C824        C  0.38903224  0.19834350  0.76108766    -0.08300
C825        C  0.37152654  0.19895543  0.73361495     0.05200
C826        C  0.38489567  0.18376791  0.70700434    -0.03300
Br827      Br  0.36738853  0.18830352  0.66610975    -0.03000
H828        H  0.42119985  0.15309109  0.68903966     0.09100
H829        H  0.38030725  0.21070788  0.78144529     0.07200
Br830      Br  0.44024590  0.18469312  0.80103570    -0.03400
C831        C  0.04910662  0.17962485  0.76409831    -0.10100
C832        C  0.03959234  0.16495939  0.73627694     0.06100
C833        C  0.06182859  0.16239784  0.71152545    -0.03800
C834        C  0.09324112  0.17107865  0.71591611    -0.08300
C835        C  0.10328010  0.18390627  0.74435488     0.05200
C836        C  0.08080063  0.18790514  0.76871621    -0.03300
Br837      Br  0.09228826  0.20268370  0.80898017    -0.03000
H838        H  0.03229696  0.18137892  0.78371954     0.09100
H839        H  0.11000713  0.16850319  0.69638023     0.07200
Br840      Br  0.05097711  0.14689653  0.67140322    -0.03400
C841        C  0.47933095  0.59931881  0.26823429     0.85600
C842        C  0.44928150  0.61954480  0.26688572    -0.54700
C843        C  0.44800841  0.64005816  0.24151991     0.08500
C844        C  0.97714368  0.63657325  0.21824698     0.19400
C845        C  0.47888818  0.58149057  0.23743276    -0.55400
C846        C  0.47914574  0.60044859  0.21089060     0.08600
C847        C  0.00696229  0.62263316  0.26411986    -0.54900
C848        C  0.00606678  0.64259287  0.23897657     0.09200
H849        H  0.43035319  0.61769422  0.28471327     0.13700
H850        H  0.97662724  0.65238300  0.19704447    -0.00600
H851        H  0.47746214  0.55606847  0.23606996     0.14000
H852        H  0.02635839  0.62324934  0.28036532     0.13800
O853        O  0.03045506  0.54677056  0.40872002    -0.81100
O854        O  0.38003085  0.96600993  0.47539882    -0.82600
O855        O  0.45362624  0.97620183  0.38840904    -0.79600
O856        O  0.42626271  0.56256064  0.43405785    -0.78000
O857        O  0.43478086  0.58181166  0.48271378    -0.79800
O858        O  0.48513561  0.93433057  0.40054114    -0.80700
O859        O  0.39589281  0.99763249  0.43359469    -0.82100
O860        O  0.47934400  0.53763324  0.39383966    -0.82300
Eu861      Eu  0.45115608  0.50992939  0.43440423     2.39200
O862        O  0.43121144  0.51243275  0.48569979    -0.89900
O863        O  0.50227355  0.98933658  0.43268783    -0.93500
C864        C  0.50721185  0.54895298  0.38910785     1.01200
C865        C  0.37495586  0.98119815  0.44929734     1.01000
C866        C  0.46796896  0.95043289  0.38176409     1.01000
C867        C  0.42432947  0.58422201  0.45477671     0.98800
H868        H  0.43442026  0.94569904  0.44268051     0.28600
O869        O  0.44817988  0.95838976  0.45508838    -1.02200
H870        H  0.48627478  0.56370815  0.45201975     0.28600
O871        O  0.48497048  0.54288337  0.46188514    -1.04800
O872        O  0.42990596  0.94059408  0.06108195    -0.82000
O873        O  0.08279900  0.51063556  0.49382266    -0.81600
O874        O  0.46205361  0.89218406  0.46029384    -0.80000
O875        O  0.40936020  0.54247343  0.03913512    -0.83300
O876        O  0.49923565  0.59389586  0.00565367    -0.81200
O877        O  0.05439072  0.94144937  0.42744095    -0.79800
O878        O  0.03445947  0.92087611  0.03578034    -0.81400
O879        O  0.00341630  0.51224900  0.08427913    -0.83300
O880        O  0.02987224  0.90171446  0.48489281    -0.80000
O881        O  0.47469709  0.55443833  0.06745797    -0.82700
O882        O  0.42044417  0.90586612  0.49228033    -0.78400
O883        O  0.07298595  0.99240345  0.42973018    -0.78500
O884        O  0.04618784  0.57488349  0.47501118    -0.78100
O885        O  0.39062354  0.99186292  0.03658978    -0.81600
O886        O  0.48113051  0.94610568  0.07653712    -0.81000
O887        O  0.06763725  0.98651089  0.03967539    -0.79400
Eu888      Eu  0.42802502  0.96236911  0.00605815     2.39800
Eu889      Eu  0.03554394  0.52097612  0.46211117     2.39600
Eu890      Eu  0.49992398  0.93832304  0.45492202     2.38400
Eu891      Eu  0.46356150  0.54624686  0.01330704     2.39900
Eu892      Eu  0.01146953  0.97529604  0.03765548     2.39800
O893        O  0.01593613  0.52689352  0.01553849    -0.93800
O894        O  0.47969007  0.94018503  0.50748010    -0.92700
C895        C  0.45194730  0.93846210  0.08148059     1.01400
C896        C  0.08936548  0.49908776  0.02105100     1.00100
C897        C  0.43501411  0.88604466  0.47468926     0.99500
C898        C  0.38835185  0.52026024  0.04530967     1.01500
C899        C  0.03125865  0.59593734  0.49038709     1.00400
C900        C  0.07566014  0.96364544  0.42153590     0.99300
C901        C  0.03798558  0.90028881  0.01392353     0.99300
C902        C  0.48830218  0.53859262  0.08906878     1.02000
H903        H  0.05235328  0.96068418  0.48517723     0.29300
O904        O  0.03178710  0.97028823  0.48511540    -1.05900
H905        H  0.45127817  0.99700368  0.05640198     0.31400
O906        O  0.46049049  0.99534753  0.03548673    -1.08500
C907        C  0.21301421  0.54864498  0.11814142     0.85600
C908        C  0.19358237  0.53763860  0.09126723    -0.54700
C909        C  0.20564220  0.51297657  0.07564480     0.08500
C910        C  0.23664875  0.00012941  0.08939733     0.19400
C911        C  0.21551140  0.51841250  0.13933169    -0.55400
C912        C  0.22816810  0.99281548  0.12453567     0.08600
C913        C  0.24666894  0.55452061  0.10464639    -0.54900
C914        C  0.25929753  0.52961826  0.08946401     0.09200
H915        H  0.17072983  0.54764582  0.08591557     0.13700
H916        H  0.24671186  0.97992488  0.07661050    -0.00600
H917        H  0.20594269  0.51597943  0.16310811     0.14000
H918        H  0.25997177  0.57620945  0.10824027     0.13800
O919        O  0.14585972  0.70304547  0.26754742    -0.81100
O920        O  0.21945467  0.78473422  0.12141167    -0.82600
O921        O  0.12857752  0.77539562  0.19479351    -0.79600
O922        O  0.17414700  0.68948812  0.16915576    -0.78000
O923        O  0.22180310  0.66722828  0.18026392    -0.79800
O924        O  0.14091764  0.81776361  0.22448493    -0.80700
O925        O  0.17515883  0.75533224  0.13495388    -0.82100
O926        O  0.13425228  0.71319673  0.21627176    -0.82300
Eu927      Eu  0.17581242  0.74211195  0.19075195     2.39200
O928        O  0.22810596  0.73744272  0.17247379    -0.89900
O929        O  0.17229049  0.76090944  0.24194772    -0.93500
C930        C  0.12760179  0.70126449  0.24348795     1.01200
C931        C  0.19297313  0.77101390  0.11485963     1.01000
C932        C  0.12165890  0.80114255  0.20876740     1.01000
C933        C  0.19368686  0.66653135  0.16950627     0.98800
H934        H  0.18505539  0.80681841  0.17409340     0.28600
O935        O  0.19688457  0.79339427  0.18802639    -1.02200
H936        H  0.19255094  0.68756921  0.22706093     0.28600
O937        O  0.20269169  0.70814407  0.22543946    -1.04800
O938        O  0.30386060  0.81102825  0.17288932    -0.82000
O939        O  0.22979616  0.73667220  0.32525649    -0.81600
O940        O  0.20599106  0.85887326  0.20473919    -0.80000
O941        O  0.28108718  0.70711002  0.15194106    -0.83300
O942        O  0.24819053  0.65817719  0.24693416    -0.81200
O943        O  0.16768157  0.80889321  0.29400084    -0.79800
O944        O  0.27380654  0.83232530  0.27796645    -0.81400
O945        O  0.32443345  0.73875894  0.25122213    -0.83300
O946        O  0.22340322  0.84771421  0.26984610    -0.80000
O947        O  0.31068426  0.69756879  0.22036716    -0.82700
O948        O  0.23886738  0.84485481  0.16384843    -0.78400
O949        O  0.16742341  0.75732290  0.31192148    -0.78500
O950        O  0.21491299  0.67278046  0.28702788    -0.78100
O951        O  0.28049525  0.75840383  0.13317708    -0.81600
O952        O  0.31781419  0.80451798  0.22428755    -0.81000
O953        O  0.27514982  0.76560775  0.31338538    -0.79400
Eu954      Eu  0.25002157  0.78872129  0.17038532     2.39800
Eu955      Eu  0.20020844  0.72766821  0.27616514     2.39600
Eu956      Eu  0.19517317  0.81142737  0.23997191     2.38400
Eu957      Eu  0.25548322  0.70396581  0.20714150     2.39900
Eu958      Eu  0.27757348  0.77647089  0.25614267     2.39800
O959        O  0.25402364  0.72507508  0.25825187    -0.93800
O960        O  0.24840358  0.80861345  0.22163185    -0.92700
C961        C  0.32321794  0.81342820  0.19549648     1.01400
C962        C  0.25529917  0.75160230  0.33313511     1.00100
C963        C  0.22248900  0.86515151  0.17905561     0.99500
C964        C  0.28744656  0.72918533  0.13048888     1.01500
C965        C  0.23266843  0.65231104  0.27351625     1.00400
C966        C  0.16079312  0.78658612  0.31494602     0.99300
C967        C  0.25088778  0.85269345  0.27999238     0.99300
C968        C  0.33101049  0.71301945  0.23607477     1.02000
H969        H  0.22331803  0.78778375  0.29331397     0.29300
O970        O  0.22403760  0.77838625  0.27296154    -1.05900
H971        H  0.29893328  0.75373287  0.19693299     0.31400
O972        O  0.27751130  0.75539739  0.20525824    -1.08500
C973        C  0.09509242  0.72168107  0.47904778     0.85600
C974        C  0.12162957  0.72479615  0.99503255    -0.54700
C975        C  0.13749180  0.75318972  0.99421732     0.08500
C976        C  0.12514074  0.77619277  0.47332770     0.19400
C977        C  0.07734790  0.74968248  0.49347793    -0.55400
C978        C  0.09210531  0.77838127  0.48928819     0.08600
C979        C  0.10262150  0.73284128  0.44472358    -0.54900
C980        C  0.11902373  0.76100282  0.44143501     0.09200
H981        H  0.12713837  0.70595317  0.01173664     0.13700
H982        H  0.13792076  0.79917640  0.47066214    -0.00600
H983        H  0.05612555  0.74766118  0.50799649     0.14000
H984        H  0.09564220  0.71940788  0.42466738     0.13800
C985        C  0.46620921  0.88581072  0.26371202     0.85600
C986        C  0.49753028  0.86877660  0.25903371    -0.54700
C987        C  0.50049069  0.85417630  0.23122741     0.08500
C988        C  0.47180593  0.85721282  0.21045227     0.19400
C989        C  0.46272941  0.90757023  0.23435614    -0.55400
C990        C  0.46587889  0.89267346  0.20627918     0.08600
C991        C  0.44084834  0.85984252  0.25926025    -0.54900
C992        C  0.44306468  0.84584488  0.23068366     0.09200
H993        H  0.01589594  0.86854040  0.27611271     0.13700
H994        H  0.47496395  0.84434438  0.18824490    -0.00600
H995        H  0.45492724  0.93171899  0.23625011     0.14000
H996        H  0.41916836  0.85732858  0.27339351     0.13800
C997        C  0.36689772  0.70626476  0.45483950     0.85600
C998        C  0.33779341  0.71225538  0.43553015    -0.54700
C999        C  0.31949664  0.73642240  0.44525186     0.08500
C1000       C  0.33302775  0.75384908  0.47367955     0.19400
C1001       C  0.38461084  0.73848294  0.45245981    -0.55400
C1002       C  0.36762558  0.76382180  0.46318836     0.08600
C1003       C  0.35469280  0.70291433  0.48888151    -0.54900
C1004       C  0.33746024  0.72743028  0.49921848     0.09200
H1005       H  0.33300226  0.70025590  0.41399289     0.13700
H1006       H  0.31751083  0.77323001  0.48100704    -0.00600
H1007       H  0.40888108  0.74069431  0.44358977     0.14000
H1008       H  0.36055379  0.68280787  0.00803962     0.13800
C1009       C  0.23583433  0.52838088  0.34522099     0.85600
C1010       C  0.25446561  0.52958925  0.37553138    -0.54700
C1011       C  0.25486677  0.00195989  0.39257723     0.08500
C1012       C  0.23513167  0.97508785  0.37833949     0.19400
C1013       C  0.25005158  0.99962013  0.32780174    -0.55400
C1014       C  0.24995395  0.97188904  0.34521684     0.08600
C1015       C  0.20255368  0.51651515  0.35617236    -0.54900
C1016       C  0.20143060  0.98837232  0.37322777     0.09200
H1017       H  0.27042316  0.54922650  0.37995889     0.13700
H1018       H  0.23557753  0.95242875  0.39184873    -0.00600
H1019       H  0.25737957  0.99955822  0.30327926     0.14000
H1020       H  0.18146116  0.52943210  0.35027000     0.13800
C1021       C  0.10628755  0.77711262  0.38567101    -0.10100
C1022       C  0.12850246  0.77567894  0.40972224     0.06100
C1023       C  0.15967834  0.78687728  0.40224170    -0.03800
C1024       C  0.16884699  0.79496596  0.37100546    -0.08300
C1025       C  0.14735984  0.79359875  0.34662048     0.05200
C1026       C  0.11538310  0.78677122  0.35466322    -0.03300
Br1027     Br  0.08370817  0.79114780  0.32377546    -0.03000
H1028       H  0.08182531  0.77032216  0.39090873     0.09100
H1029       H  0.19366355  0.79989470  0.36532331     0.07200
Br1030     Br  0.19224058  0.78878308  0.43232249    -0.03400
C1031       C  0.13643345  0.77493245  0.04791404    -0.10100
C1032       C  0.15436346  0.76219090  0.02311689     0.06100
C1033       C  0.18627559  0.75468998  0.02832421    -0.03800
C1034       C  0.19981527  0.76119744  0.05729136    -0.08300
C1035       C  0.18130008  0.77261002  0.08236296     0.05200
C1036       C  0.14937678  0.77978519  0.07721842    -0.03300
Br1037     Br  0.12186089  0.79516272  0.10998476    -0.03000
H1038       H  0.11154142  0.77940422  0.04523202     0.09100
H1039       H  0.22420563  0.75509157  0.06096936     0.07200
Br1040     Br  0.21120542  0.73200266  0.99849084    -0.03400
C1041       C  0.29348058  0.77460406  0.40927485    -0.10100
C1042       C  0.29231065  0.74548428  0.42568070     0.06100
C1043       C  0.27154148  0.72167527  0.41538690    -0.03800
C1044       C  0.25760892  0.72483332  0.38607639    -0.08300
C1045       C  0.26306304  0.75206941  0.36709760     0.05200
C1046       C  0.27846859  0.77820384  0.38044901    -0.03300
Br1047     Br  0.27936529  0.81928772  0.36068399    -0.03000
H1048       H  0.30825569  0.79365276  0.41739000     0.09100
H1049       H  0.24441500  0.70502762  0.37723554     0.07200
Br1050     Br  0.26467912  0.68276019  0.43900905    -0.03400
C1051       C  0.33315992  0.73367932  0.09175751    -0.10100
C1052       C  0.30247583  0.72190829  0.09938000     0.06100
C1053       C  0.28385891  0.71141555  0.07468420    -0.03800
C1054       C  0.29501823  0.71464630  0.04316759    -0.08300
C1055       C  0.32522746  0.72754150  0.03552647     0.05200
C1056       C  0.34501140  0.73523075  0.06045863    -0.03300
Br1057     Br  0.38874755  0.74707312  0.05307139    -0.03000
H1058       H  0.34785853  0.74213137  0.11023327     0.09100
H1059       H  0.28021399  0.70663494  0.02458526     0.07200
Br1060     Br  0.24266276  0.69314889  0.08316659    -0.03400
C1061       C  0.27721606  0.89053922  0.31670177    -0.10100
C1062       C  0.25379382  0.88428417  0.29493907     0.06100
C1063       C  0.23026300  0.90785208  0.29020932    -0.03800
C1064       C  0.23051931  0.93539157  0.30699078    -0.08300
C1065       C  0.25291378  0.94109092  0.32934742     0.05200
C1066       C  0.27629185  0.91804019  0.33470408    -0.03300
Br1067     Br  0.30640938  0.92115295  0.36691672    -0.03000
H1068       H  0.29549747  0.87344161  0.32074412     0.09100
H1069       H  0.21225016  0.95263673  0.30293226     0.07200
Br1070     Br  0.19533975  0.90600802  0.26215304    -0.03400
C1071       C  0.24786581  0.56402132  0.29469663    -0.10100
C1072       C  0.23582827  0.56067606  0.32617433     0.06100
C1073       C  0.22379271  0.58850284  0.33971349    -0.03800
C1074       C  0.22302000  0.61722336  0.32214836    -0.08300
C1075       C  0.23479274  0.62037969  0.29070817     0.05200
C1076       C  0.24772561  0.59299358  0.27735108    -0.03300
Br1077     Br  0.26584548  0.59281683  0.23541502    -0.03000
H1078       H  0.25798237  0.54441993  0.28270961     0.09100
H1079       H  0.21337823  0.63755940  0.33372125     0.07200
Br1080     Br  0.20871908  0.58966934  0.38277185    -0.03400
C1081       C  0.37911315  0.80371915  0.18739106    -0.10100
C1082       C  0.35489387  0.82603652  0.18933953     0.06100
C1083       C  0.36150594  0.85630014  0.20005543    -0.03800
C1084       C  0.39073852  0.86250723  0.21269078    -0.08300
C1085       C  0.41354123  0.83873563  0.21477747     0.05200
C1086       C  0.40849961  0.80990649  0.20022023    -0.03300
Br1087     Br  0.43948782  0.77729388  0.20087077    -0.03000
H1088       H  0.37388537  0.78010699  0.17960296     0.09100
H1089       H  0.39512723  0.88551021  0.22233051     0.07200
Br1090     Br  0.32926551  0.88762297  0.20335327    -0.03400
C1091       C  0.06692032  0.79579316  0.22941019    -0.10100
C1092       C  0.08889682  0.81166962  0.20900607     0.06100
C1093       C  0.08072274  0.84032018  0.19412148    -0.03800
C1094       C  0.05089617  0.85303974  0.20024505    -0.08300
C1095       C  0.02954734  0.83790040  0.22180314     0.05200
C1096       C  0.03746427  0.80892938  0.23619012    -0.03900
Br1097     Br  0.00940962  0.78743413  0.26632433    -0.03000
H1098       H  0.07342432  0.77411569  0.24154817     0.09100
H1099       H  0.04493307  0.87552558  0.18937810     0.07200
Br1100     Br  0.11017960  0.86341365  0.16660881    -0.03400
C1101       C  0.21943258  0.93458612  0.12096720    -0.10100
C1102       C  0.22866858  0.96016126  0.13910834     0.06100
C1103       C  0.23671984  0.95385099  0.17071109    -0.03800
C1104       C  0.23376076  0.92297169  0.18362969    -0.08300
C1105       C  0.22317015  0.89786582  0.16565274     0.05200
C1106       C  0.21636074  0.90392274  0.13390944    -0.03300
Br1107     Br  0.20124533  0.87134798  0.10742300    -0.03000
H1108       H  0.21384445  0.93834539  0.09658913     0.09100
H1109       H  0.24082786  0.91836069  0.20751049     0.07200
Br1110     Br  0.25472532  0.98540012  0.19664258    -0.03400
C1111       C  0.19087295  0.58052511  0.16357764    -0.10100
C1112       C  0.19904071  0.57846434  0.13141139     0.06100
C1113       C  0.19518342  0.60575377  0.11153269    -0.03800
C1114       C  0.18712989  0.63433232  0.12444129    -0.08300
C1115       C  0.18418579  0.63677236  0.15674634     0.05200
C1116       C  0.18357947  0.60955963  0.17624242    -0.03300
Br1117     Br  0.17601535  0.61191111  0.22076700    -0.03000
H1118       H  0.19202201  0.56054978  0.17966454     0.09100
H1119       H  0.18696660  0.65547172  0.10951758     0.07200
Br1120     Br  0.20381192  0.60791692  0.06697612    -0.03400
C1121       C  0.45742841  0.94960177  0.13659283    -0.10100
C1122       C  0.44477874  0.92948291  0.11431600     0.06100
C1123       C  0.43526070  0.89881816  0.12343912    -0.03800
C1124       C  0.44133697  0.88773096  0.15381338    -0.08300
C1125       C  0.45700130  0.90684536  0.17545343     0.05200
C1126       C  0.46441041  0.93850221  0.16658310    -0.03300
Br1127     Br  0.98800151  0.96683736  0.19141935    -0.03000
H1128       H  0.46515766  0.97333965  0.12942423     0.09100
H1129       H  0.43472568  0.86356183  0.15974528     0.07200
Br1130     Br  0.41683028  0.87063134  0.09437890    -0.03400
C1131       C  0.44234451  0.89697786  0.31845347    -0.10100
C1132       C  0.46504115  0.90416722  0.29411929     0.06100
C1133       C  0.48758261  0.92872529  0.29891869    -0.03800
C1134       C  0.48681957  0.94513959  0.32691498    -0.08300
C1135       C  0.46431101  0.93744803  0.35071500     0.05200
C1136       C  0.44192279  0.91339553  0.34639011    -0.03300
Br1137     Br  0.41103977  0.90142656  0.37878850    -0.03000
H1138       H  0.42519181  0.87811322  0.31689382     0.09100
H1139       H  0.00394368  0.96327654  0.33047201     0.07200
Br1140     Br  0.02100339  0.94011804  0.26920866    -0.03400
C1141       C  0.13248874  0.95068888  0.42425701    -0.10100
C1142       C  0.10655271  0.95721148  0.40552233     0.06100
C1143       C  0.11272868  0.96844215  0.37454611    -0.03800
C1144       C  0.14385822  0.97612224  0.36398000    -0.08300
C1145       C  0.16992297  0.97289533  0.38378285     0.05200
C1146       C  0.16383851  0.95757743  0.41358395    -0.03300
Br1147     Br  0.19545651  0.44708743  0.44289641    -0.03000
H1148       H  0.12787682  0.44255212  0.44840632     0.09100
H1149       H  0.14743595  0.98591478  0.34035802     0.07200
Br1150     Br  0.07871668  0.97586282  0.34672860    -0.03400
C1151       C  0.31593370  0.98310644  0.45475918    -0.10100
C1152       C  0.34337601  0.98129450  0.43549178     0.06100
C1153       C  0.34082720  0.98537540  0.40255428    -0.03800
C1154       C  0.31188575  0.99246853  0.38991706    -0.08300
C1155       C  0.28450406  0.99465041  0.40889326     0.05200
C1156       C  0.28665377  0.99008680  0.44167606    -0.03300
Br1157     Br  0.25231697  0.49661262  0.47024267    -0.03000
H1158       H  0.31759046  0.98113641  0.48007228     0.09100
H1159       H  0.31069624  0.99596666  0.36468060     0.07200
Br1160     Br  0.37561462  0.98157607  0.37260332    -0.03400
C1161       C  0.14644265  0.51401220  0.01464480    -0.10100
C1162       C  0.12269726  0.49571366  0.03057482     0.06100
C1163       C  0.13143842  0.47564123  0.05614254    -0.03800
C1164       C  0.16251252  0.47636537  0.06627839    -0.08300
C1165       C  0.18476633  0.49813341  0.05318222     0.05200
C1166       C  0.17689850  0.51594263  0.02622562    -0.03300
Br1167     Br  0.20401021  0.54934330  0.00965519    -0.03000
H1168       H  0.13901761  0.52680504  0.49195278     0.09100
H1169       H  0.16751506  0.46380253  0.08796144     0.07200
Br1170     Br  0.10242051  0.44964398  0.08193956    -0.03400
C1171       C  0.33965283  0.55179308  0.05052197    -0.10100
C1172       C  0.35827316  0.52727648  0.06199185     0.06100
C1173       C  0.34496884  0.00574383  0.08457287    -0.03800
C1174       C  0.31266717  0.00648267  0.09269932    -0.08300
C1175       C  0.29330719  0.52958807  0.07947568     0.05200
C1176       C  0.30746681  0.55331843  0.05928116    -0.03300
Br1177     Br  0.28399991  0.58699291  0.04078534    -0.03000
H1178       H  0.34963293  0.56864942  0.03317384     0.09100
H1179       H  0.30275675  0.98921225  0.10967884     0.07200
Br1180     Br  0.37027499  0.97490198  0.10559277    -0.03400
C1181       C  0.42840534  0.64140240  0.45837857    -0.10100
C1182       C  0.41189950  0.61556205  0.44666950     0.06100
C1183       C  0.38265757  0.62043906  0.43284341    -0.03800
C1184       C  0.36980492  0.65077419  0.43260862    -0.08300
C1185       C  0.38538369  0.67669241  0.44652035     0.05200
C1186       C  0.41508799  0.67107780  0.45983832    -0.03300
Br1187     Br  0.44074780  0.70008677  0.98948736    -0.03000
H1188       H  0.45096830  0.63778977  0.46924147     0.09100
H1189       H  0.34609730  0.65268773  0.42419555     0.07200
Br1190     Br  0.35739293  0.58609166  0.41811993    -0.03400
C1191       C  0.39339536  0.84593986  0.49217001    -0.10100
C1192       C  0.41855748  0.85457339  0.47099368     0.06100
C1193       C  0.42554444  0.83373299  0.44642291    -0.03800
C1194       C  0.40779449  0.80553495  0.44383461    -0.08300
C1195       C  0.38297168  0.79642674  0.46549441     0.05200
C1196       C  0.37570384  0.81781668  0.48973493    -0.03300
Br1197     Br  0.34298373  0.81149706  0.52169029    -0.03000
H1198       H  0.38726692  0.86127505  0.51128963     0.09100
H1199       H  0.41363425  0.79062709  0.42434190     0.07200
Br1200     Br  0.45854817  0.84197987  0.41502980    -0.03400
C1201       C  0.07638997  0.63223895  0.47312619    -0.10100
C1202       C  0.04692364  0.62808248  0.48955326     0.06100
C1203       C  0.03336115  0.65488980  0.50305240    -0.03800
C1204       C  0.04851309  0.68454061  0.49917621    -0.08300
C1205       C  0.07802646  0.68895404  0.48253405     0.05200
C1206       C  0.09179096  0.66173390  0.46964371    -0.03300
Br1207     Br  0.13162264  0.66267663  0.44636373    -0.03000
H1208       H  0.08786942  0.61233025  0.46246537     0.09100
H1209       H  0.03625640  0.70362329  0.50989165     0.07200
Br1210     Br  0.49400452  0.65314245  0.52690134    -0.03400
C1211       C  0.09472239  0.83421905  0.00922580    -0.10100
C1212       C  0.07808846  0.80819188  0.50094515     0.06100
C1213       C  0.04506068  0.81343515  0.50100006    -0.03800
C1214       C  0.03311875  0.84183194  0.51162127    -0.08300
C1215       C  0.05058456  0.86873629  0.02013484     0.05200
C1216       C  0.08333236  0.86350535  0.01839101    -0.03300
Br1217     Br  0.11369302  0.89688051  0.02241382    -0.03000
H1218       H  0.12002985  0.83087391  0.00880169     0.09100
H1219       H  0.00791864  0.84582214  0.50990316     0.07200
Br1220     Br  0.01489553  0.78653779  0.48112014    -0.03400
C1221       C  0.45786965  0.58749220  0.15840474    -0.10100
C1222       C  0.48282782  0.58594013  0.17907965     0.06100
C1223       C  0.00904660  0.56675322  0.17103322    -0.03800
C1224       C  0.01036489  0.55088657  0.14232305    -0.08300
C1225       C  0.48545797  0.55276713  0.12114705     0.05200
C1226       C  0.45858154  0.57084216  0.13026545    -0.03300
Br1227     Br  0.42038274  0.57206103  0.10702190    -0.03000
H1228       H  0.43697379  0.60067363  0.16483782     0.09100
H1229       H  0.03118301  0.53748371  0.13618889     0.07200
Br1230     Br  0.04471247  0.56216891  0.19734377    -0.03400
C1231       C  0.97879653  0.60028303  0.32679655    -0.10100
C1232       C  0.48483259  0.58206922  0.29961267     0.06100
C1233       C  0.50619002  0.55645422  0.30321819    -0.03800
C1234       C  0.51787567  0.54860559  0.33278438    -0.08300
C1235       C  0.51003867  0.56606655  0.35911868     0.05200
C1236       C  0.99114872  0.59267009  0.35581566    -0.03300
Br1237     Br  0.97817682  0.61715071  0.39109050    -0.03000
H1238       H  0.96513094  0.62159239  0.32527292     0.09100
H1239       H  0.53145426  0.52731486  0.33569171     0.07200
Br1240     Br  0.52108539  0.52976638  0.27055935    -0.03400
C1241       C  0.40511093  0.66687734  0.21074547    -0.10100
C1242       C  0.42115157  0.66339559  0.23892610     0.06100
C1243       C  0.40951886  0.68058682  0.26507252    -0.03800
C1244       C  0.38117579  0.69778874  0.26350236    -0.08300
C1245       C  0.36382687  0.69922058  0.23598990     0.05200
C1246       C  0.37713186  0.68460637  0.20899293    -0.03300
Br1247     Br  0.35884836  0.68879561  0.16841012    -0.03000
H1248       H  0.41381423  0.65494480  0.19010945     0.09100
H1249       H  0.37224233  0.70939365  0.28424321     0.07200
Br1250     Br  0.43199519  0.68307567  0.30339789    -0.03400
C1251       C  0.04102646  0.68237833  0.26186444    -0.10100
C1252       C  0.03282778  0.66552776  0.23500325     0.06100
C1253       C  0.05629643  0.66085016  0.21173516    -0.03800
C1254       C  0.08757483  0.66975808  0.21692507    -0.08300
C1255       C  0.09624482  0.68510943  0.24450821     0.05200
C1256       C  0.07242296  0.69152110  0.26701681    -0.03300
Br1257     Br  0.08151900  0.71140852  0.30548210    -0.03000
H1258       H  0.02330096  0.68568898  0.28039738     0.09100
H1259       H  0.10528040  0.66557334  0.19858208     0.07200
Br1260     Br  0.04704597  0.64253318  0.17244384    -0.03400
C1261       C  0.48530283  0.59885423  0.76909097     0.85600
C1262       C  0.45514430  0.61891415  0.76694253    -0.54700
C1263       C  0.45432723  0.63910866  0.74131023     0.08500
C1264       C  0.98385935  0.63526168  0.71872399     0.19400
C1265       C  0.48569500  0.58050504  0.73849851    -0.55400
C1266       C  0.48603358  0.59922055  0.71169434     0.08600
C1267       C  0.01272976  0.62202642  0.76530396    -0.54900
C1268       C  0.01222667  0.64182044  0.74010096     0.09200
H1269       H  0.43594722  0.61739736  0.78450762     0.13700
H1270       H  0.98350012  0.65086511  0.69738448    -0.00600
H1271       H  0.48499270  0.55496493  0.73766177     0.14000
H1272       H  0.03191185  0.62258742  0.78181478     0.13800
O1273       O  0.03378479  0.54945669  0.91071162    -0.81100
O1274       O  0.38070063  0.96883255  0.97266226    -0.82600
O1275       O  0.45556702  0.97766730  0.88710363    -0.79600
O1276       O  0.43021410  0.56522254  0.93233734    -0.78000
O1277       O  0.43564086  0.58322360  0.98204085    -0.79800
O1278       O  0.48535889  0.93496824  0.90066634    -0.80700
O1279       O  0.39667651  0.99996260  0.93025453    -0.82100
O1280       O  0.48291766  0.54043253  0.89438487    -0.82300
Eu1281     Eu  0.45198978  0.51142328  0.93306464     2.39200
O1282       O  0.43044878  0.51378175  0.98414885    -0.89900
O1283       O  0.50363122  0.99134775  0.93264154    -0.93500
C1284       C  0.51098987  0.55184491  0.89066599     1.01200
C1285       C  0.37569004  0.98367288  0.94626566     1.01000
C1286       C  0.46913602  0.95127057  0.88124061     1.01000
C1287       C  0.42768894  0.58644709  0.95341950     0.98800
H1288       H  0.43521810  0.94731967  0.94167565     0.28600
O1289       O  0.44875963  0.96014712  0.95418329    -1.02200
H1290       H  0.48678913  0.56433567  0.95245868     0.28600
O1291       O  0.48504473  0.54349113  0.96216469    -1.04800
O1292       O  0.42873544  0.93886842  0.56149378    -0.82000
O1293       O  0.08375461  0.51350168  0.99463782    -0.81600
O1294       O  0.46308944  0.89345193  0.96082665    -0.80000
O1295       O  0.41069916  0.54262828  0.53933275    -0.83300
O1296       O  0.50424790  0.59048330  0.50484820    -0.81200
O1297       O  0.05438877  0.94387635  0.92656066    -0.79800
O1298       O  0.03667280  0.91926721  0.53475929    -0.81400
O1299       O  0.00581350  0.51024357  0.58443422    -0.83300
O1300       O  0.02938819  0.90373617  0.98550235    -0.80000
O1301       O  0.47705477  0.55287356  0.56815823    -0.82700
O1302       O  0.42122914  0.90701096  0.99254699    -0.78400
O1303       O  0.07364183  0.99432644  0.93136362    -0.78500
O1304       O  0.04255219  0.57763116  0.97709283    -0.78100
O1305       O  0.39192345  0.99220462  0.53694247    -0.81600
O1306       O  0.47984605  0.94538118  0.57683363    -0.81000
O1307       O  0.06826307  0.98454097  0.53924937    -0.79400
Eu1308     Eu  0.42828593  0.96083163  0.50708747     2.39800
Eu1309     Eu  0.03618547  0.52287850  0.96332239     2.39600
Eu1310     Eu  0.50046184  0.94021710  0.95467484     2.38400
Eu1311     Eu  0.46496412  0.54536355  0.51364958     2.39900
Eu1312     Eu  0.01225442  0.97331537  0.53737458     2.39800
O1313       O  0.01631762  0.52444456  0.51480265    -0.93800
O1314       O  0.47968556  0.94270345  0.00681577    -0.92700
C1315       C  0.45067957  0.93747722  0.58189202     1.01400
C1316       C  0.08911513  0.49656931  0.52025780     1.00100
C1317       C  0.43623389  0.88702385  0.97554418     0.99500
C1318       C  0.38944034  0.52052213  0.54490883     1.01500
C1319       C  0.02684575  0.59911161  0.99121591     1.00400
C1320       C  0.07596801  0.96599602  0.92167234     0.99300
C1321       C  0.03980339  0.89856593  0.51289311     0.99300
C1322       C  0.49125106  0.53701313  0.58947663     1.02000
H1323       H  0.05249126  0.96242750  0.98607040     0.29300
O1324       O  0.03186815  0.97191658  0.98579195    -1.05900
H1325       H  0.45237186  0.99599376  0.55651911     0.31400
O1326       O  0.46137047  0.99422745  0.53553270    -1.08500
C1327       C  0.21395682  0.54503842  0.61545424     0.85600
C1328       C  0.19501953  0.53592166  0.58745568    -0.54700
C1329       C  0.20689269  0.51167481  0.57096200     0.08500
C1330       C  0.23696860  0.99760976  0.58533468     0.19400
C1331       C  0.21504856  0.51395781  0.63548607    -0.55400
C1332       C  0.22718142  0.98927617  0.62000311     0.08600
C1333       C  0.24802692  0.55034611  0.60299914    -0.54900
C1334       C  0.26004915  0.52586536  0.58684308     0.09200
H1335       H  0.17247214  0.54663353  0.58218626     0.13700
H1336       H  0.24674307  0.97754622  0.57210933    -0.00600
H1337       H  0.20573639  0.51109406  0.65935759     0.14000
H1338       H  0.26182866  0.57157960  0.60727273     0.13800
O1339       O  0.15310380  0.70076926  0.76589439    -0.81100
O1340       O  0.22492987  0.78367564  0.61963118    -0.82600
O1341       O  0.13380229  0.77322382  0.69170143    -0.79600
O1342       O  0.18089351  0.68630890  0.66852182    -0.78000
O1343       O  0.22841553  0.66384812  0.67992376    -0.79800
O1344       O  0.14600378  0.81517647  0.72187516    -0.80700
O1345       O  0.18054412  0.75450744  0.63342264    -0.82100
O1346       O  0.14015044  0.71244574  0.71529798    -0.82300
Eu1347     Eu  0.18166913  0.73981629  0.68877735     2.39200
O1348       O  0.23397609  0.73537689  0.66996304    -0.89900
O1349       O  0.17799263  0.75796975  0.74021979    -0.93500
C1350       C  0.13418659  0.69985089  0.74232212     1.01200
C1351       C  0.19819150  0.77039891  0.61335824     1.01000
C1352       C  0.12682834  0.79918661  0.70545064     1.01000
C1353       C  0.20017143  0.66307179  0.66942744     0.98800
H1354       H  0.19056177  0.80408709  0.67239662     0.28600
O1355       O  0.20261222  0.79083562  0.68628548    -1.02200
H1356       H  0.19949325  0.68599918  0.72521073     0.28600
O1357       O  0.20958053  0.70657351  0.72322584    -1.04800
O1358       O  0.30918625  0.81038521  0.67123010    -0.82000
O1359       O  0.23794560  0.73346505  0.82278827    -0.81600
O1360       O  0.21006623  0.85518195  0.70100418    -0.80000
O1361       O  0.28624250  0.70469675  0.64921602    -0.83300
O1362       O  0.25633168  0.65640043  0.74299500    -0.81200
O1363       O  0.17199715  0.80505613  0.79212375    -0.79800
O1364       O  0.27763636  0.83058287  0.77491346    -0.81400
O1365       O  0.33125031  0.73852125  0.74836674    -0.83300
O1366       O  0.22627337  0.84475921  0.76921640    -0.80000
O1367       O  0.31799664  0.69716976  0.71756328    -0.82700
O1368       O  0.24311362  0.84206990  0.65991693    -0.78400
O1369       O  0.17524378  0.75412870  0.81125060    -0.78500
O1370       O  0.22239809  0.67084623  0.78259230    -0.78100
O1371       O  0.28535360  0.75607962  0.63084902    -0.81600
O1372       O  0.32273494  0.80455774  0.72277744    -0.81000
O1373       O  0.28328179  0.76180552  0.80985989    -0.79400
Eu1374     Eu  0.25571725  0.78677447  0.66825090     2.39800
Eu1375     Eu  0.20727793  0.72553394  0.77404882     2.39600
Eu1376     Eu  0.20004615  0.80858745  0.73811549     2.38400
Eu1377     Eu  0.26226457  0.70239405  0.70446078     2.39900
Eu1378     Eu  0.28339141  0.77478624  0.75343983     2.39800
O1379       O  0.26081973  0.72317312  0.75563148    -0.93800
O1380       O  0.25334813  0.80656352  0.71949648    -0.92700
C1381       C  0.32812533  0.81367409  0.69410766     1.01400
C1382       C  0.26392268  0.74795635  0.83006825     1.00100
C1383       C  0.22602637  0.86180261  0.67500997     0.99500
C1384       C  0.29207503  0.72685312  0.62789053     1.01500
C1385       C  0.24027511  0.65054612  0.76911571     1.00400
C1386       C  0.16677740  0.78295239  0.81374565     0.99300
C1387       C  0.25425976  0.85036339  0.77770407     0.99300
C1388       C  0.33818467  0.71285754  0.73330699     1.02000
H1389       H  0.22956164  0.78550011  0.79153328     0.29300
O1390       O  0.23012226  0.77641557  0.77101985    -1.05900
H1391       H  0.30564104  0.75266924  0.69409038     0.31400
O1392       O  0.28420217  0.75386548  0.70250305    -1.08500
C1393       C  0.09107838  0.72409635  0.97648126     0.85600
C1394       C  0.12705026  0.72264846  0.49534866    -0.54700
C1395       C  0.14243298  0.75140407  0.49383654     0.08500
C1396       C  0.12212472  0.77808800  0.97217614     0.19400
C1397       C  0.07243787  0.75246726  0.98869944    -0.55400
C1398       C  0.08798822  0.78093129  0.98602407     0.08600
C1399       C  0.10087303  0.73475432  0.94251257    -0.54900
C1400       C  0.11792258  0.76251325  0.93992667     0.09200
H1401       H  0.13378506  0.70388063  0.51162114     0.13700
H1402       H  0.13579487  0.80061637  0.96983830    -0.00600
H1403       H  0.04936996  0.75037192  0.99991280     0.14000
H1404       H  0.09461953  0.72158384  0.92205752     0.13800
C1405       C  0.47227579  0.88668907  0.76273864     0.85600
C1406       C  0.50401397  0.87046166  0.75691611    -0.54700
C1407       C  0.50638373  0.85569412  0.72901917     0.08500
C1408       C  0.47674135  0.85839092  0.70920757     0.19400
C1409       C  0.46763946  0.90855485  0.73367366    -0.55400
C1410       C  0.47008618  0.89385133  0.70542485     0.08600
C1411       C  0.44714975  0.86033425  0.75868300    -0.54900
C1412       C  0.44846436  0.84661220  0.73004708     0.09200
H1413       H  0.02324137  0.87105002  0.77311915     0.13700
H1414       H  0.47944255  0.84569399  0.68686336    -0.00600
H1415       H  0.45929061  0.93246646  0.73599587     0.14000
H1416       H  0.42561901  0.85777620  0.77301445     0.13800
C1417       C  0.36972384  0.70659567  0.95917769     0.85600
C1418       C  0.34185527  0.71259880  0.93828884    -0.54700
C1419       C  0.32285986  0.73641572  0.94701740     0.08500
C1420       C  0.33473495  0.75395053  0.97625150     0.19400
C1421       C  0.38736692  0.73863405  0.95768344    -0.55400
C1422       C  0.36984918  0.76392076  0.96732526     0.08600
C1423       C  0.35584023  0.70301231  0.99268212    -0.54900
C1424       C  0.33781693  0.72744150  0.00224093     0.09200
H1425       H  0.33867924  0.70098235  0.91617654     0.13700
H1426       H  0.31897851  0.77346390  0.98277905    -0.00600
H1427       H  0.41186107  0.74092195  0.94958785     0.14000
H1428       H  0.35985828  0.68267644  0.50404578     0.13800
C1429       C  0.23670855  0.52710900  0.83906022     0.85600
C1430       C  0.25633347  0.52780506  0.86873361    -0.54700
C1431       C  0.25595891  0.00015681  0.88668642     0.08500
C1432       C  0.23458796  0.97397197  0.87321543     0.19400
C1433       C  0.24939264  0.99771728  0.82226461    -0.55400
C1434       C  0.24825290  0.97013858  0.83972663     0.08600
C1435       C  0.20303131  0.51669639  0.85063087    -0.54900
C1436       C  0.20131822  0.98866811  0.86871384     0.09200
H1437       H  0.27294659  0.54699366  0.87281067     0.13700
H1438       H  0.23392971  0.95143666  0.88705459    -0.00600
H1439       H  0.25714229  0.99743541  0.79788323     0.14000
H1440       H  0.18218219  0.53009797  0.84489416     0.13800
C1441       C  0.10883503  0.77942424  0.88339993    -0.10100
C1442       C  0.12984526  0.77603582  0.90838687     0.06100
C1443       C  0.16235971  0.78214093  0.90158078    -0.03800
C1444       C  0.17334255  0.78894546  0.87057903    -0.08300
C1445       C  0.15271813  0.78985510  0.84534611     0.05200
C1446       C  0.11999421  0.78626963  0.85225173    -0.03300
Br1447     Br  0.09014604  0.78822088  0.81934101    -0.03000
H1448       H  0.08371542  0.77527685  0.88787061     0.09100
H1449       H  0.19867585  0.79064099  0.86573368     0.07200
Br1450     Br  0.19386586  0.77686287  0.93233398    -0.03400
C1451       C  0.14076335  0.77174880  0.54774581    -0.10100
C1452       C  0.15926636  0.76099329  0.52239799     0.06100
C1453       C  0.19198775  0.75681241  0.52640561    -0.03800
C1454       C  0.20533356  0.76306599  0.55550594    -0.08300
C1455       C  0.18622706  0.77237964  0.58113563     0.05200
C1456       C  0.15380513  0.77762261  0.57663064    -0.03300
Br1457     Br  0.12560214  0.79183993  0.60946367    -0.03000
H1458       H  0.11550138  0.77421614  0.54577518     0.09100
H1459       H  0.23018566  0.75847848  0.55872932     0.07200
Br1460     Br  0.21881831  0.73998626  0.49414879    -0.03400
C1461       C  0.30269890  0.77242154  0.90593072    -0.10100
C1462       C  0.29765959  0.74531926  0.92496280     0.06100
C1463       C  0.27651981  0.72171864  0.91476886    -0.03800
C1464       C  0.26417583  0.72369099  0.88456949    -0.08300
C1465       C  0.27244493  0.74906400  0.86389468     0.05200
C1466       C  0.29030495  0.77448871  0.87579837    -0.03300
Br1467     Br  0.29965947  0.81253720  0.85213644    -0.03000
H1468       H  0.31886783  0.79072571  0.91321730     0.09100
H1469       H  0.24985609  0.70425802  0.87657300     0.07200
Br1470     Br  0.26737912  0.68413800  0.93984870    -0.03400
C1471       C  0.33636775  0.73223406  0.58836824    -0.10100
C1472       C  0.30620426  0.71967677  0.59668031     0.06100
C1473       C  0.28686514  0.70917219  0.57258531    -0.03800
C1474       C  0.29672118  0.71334435  0.54092654    -0.08300
C1475       C  0.32624336  0.72722761  0.53262653     0.05200
C1476       C  0.34690697  0.73491706  0.55680595    -0.03300
Br1477     Br  0.38991589  0.74860704  0.54807840    -0.03000
H1478       H  0.35150730  0.74070155  0.60649175     0.09100
H1479       H  0.28147238  0.70528808  0.52271052     0.07200
Br1480     Br  0.24635994  0.68987271  0.58181416    -0.03400
C1481       C  0.27609885  0.88762872  0.81699262    -0.10100
C1482       C  0.25731084  0.88238887  0.79108418     0.06100
C1483       C  0.23646677  0.90694743  0.78171170    -0.03800
C1484       C  0.23587744  0.93516664  0.79721555    -0.08300
C1485       C  0.25285999  0.93948260  0.82423845     0.05200
C1486       C  0.27250121  0.91490138  0.83480988    -0.03300
Br1487     Br  0.29276126  0.91517166  0.87420372    -0.03000
H1488       H  0.29194538  0.86966812  0.82476978     0.09100
H1489       H  0.21988631  0.95332814  0.78931945     0.07200
Br1490     Br  0.20415481  0.90432484  0.75100467    -0.03400
C1491       C  0.25142239  0.56204164  0.78900347    -0.10100
C1492       C  0.23832794  0.55907166  0.82012655     0.06100
C1493       C  0.22753965  0.58715191  0.83391233    -0.03800
C1494       C  0.22911496  0.61599918  0.81696853    -0.08300
C1495       C  0.24149406  0.61876008  0.78580974     0.05200
C1496       C  0.25311238  0.59109326  0.77205069    -0.03300
Br1497     Br  0.27110053  0.59048548  0.73002287    -0.03000
H1498       H  0.26087050  0.54217749  0.77695411     0.09100
H1499       H  0.22042391  0.63665098  0.82870855     0.07200
Br1500     Br  0.21057667  0.58849576  0.87631320    -0.03400
C1501       C  0.38408583  0.80591524  0.68537194    -0.10100
C1502       C  0.35942297  0.82748425  0.68864963     0.06100
C1503       C  0.36524217  0.85679332  0.70192229    -0.03800
C1504       C  0.39441170  0.86271448  0.71508263    -0.08300
C1505       C  0.41808617  0.83955071  0.71511280     0.05200
C1506       C  0.41321183  0.81158077  0.69891133    -0.03300
Br1507     Br  0.44381156  0.77878330  0.69815715    -0.03000
H1508       H  0.37934553  0.78284430  0.67599186     0.09100
H1509       H  0.39824118  0.88507102  0.72623004     0.07200
Br1510     Br  0.33187974  0.88679946  0.70699357    -0.03400
C1511       C  0.06948329  0.79359042  0.71881601    -0.10100
C1512       C  0.09435467  0.81139238  0.70419927     0.06100
C1513       C  0.08909813  0.84308642  0.69502295    -0.03800
C1514       C  0.05983001  0.85691758  0.70193200    -0.08300
C1515       C  0.03561920  0.83964559  0.71827398     0.05200
C1516       C  0.04041002  0.80758060  0.72620725    -0.03900
Br1517     Br  0.00911617  0.78279366  0.74974503    -0.03000
H1518       H  0.07345505  0.76944358  0.72665752     0.09100
H1519       H  0.05636900  0.88155352  0.69559523     0.07200
Br1520     Br  0.12177738  0.86846914  0.67389357    -0.03400
C1521       C  0.21874494  0.93076877  0.61672239    -0.10100
C1522       C  0.22840972  0.95658960  0.63435302     0.06100
C1523       C  0.23822571  0.95051899  0.66541870    -0.03800
C1524       C  0.23738904  0.91956631  0.67808810    -0.08300
C1525       C  0.22539363  0.89433989  0.66124714     0.05200
C1526       C  0.21630785  0.90015771  0.63009005    -0.03300
Br1527     Br  0.19925249  0.86730288  0.60512246    -0.03000
H1528       H  0.21235319  0.93429953  0.59254652     0.09100
H1529       H  0.24711125  0.91507575  0.70091533     0.07200
Br1530     Br  0.25527201  0.98268179  0.69125129    -0.03400
C1531       C  0.19253754  0.57649226  0.66176714    -0.10100
C1532       C  0.20101567  0.57487858  0.62958161     0.06100
C1533       C  0.19949336  0.60294868  0.61046876    -0.03800
C1534       C  0.19327230  0.63156467  0.62406802    -0.08300
C1535       C  0.19039767  0.63341470  0.65640526     0.05200
C1536       C  0.18776162  0.60576220  0.67530330    -0.03300
Br1537     Br  0.17975230  0.60745903  0.71981312    -0.03000
H1538       H  0.19176343  0.55582727  0.67713380     0.09100
H1539       H  0.19434844  0.65301236  0.60962595     0.07200
Br1540     Br  0.20979706  0.60594642  0.56617954    -0.03400
C1541       C  0.45526954  0.95025763  0.63651931    -0.10100
C1542       C  0.44327483  0.92922080  0.61477190     0.06100
C1543       C  0.43510884  0.89838449  0.62446474    -0.03800
C1544       C  0.44288670  0.88787396  0.65450889    -0.08300
C1545       C  0.45883958  0.90772061  0.67528901     0.05200
C1546       C  0.46410052  0.93973412  0.66615008    -0.03300
Br1547     Br  0.98819685  0.96992013  0.68929111    -0.03000
H1548       H  0.46160889  0.97425042  0.62889371     0.09100
H1549       H  0.43762028  0.86349014  0.66061011     0.07200
Br1550     Br  0.41651741  0.86912748  0.59653405    -0.03400
C1551       C  0.44870560  0.89538444  0.81819088    -0.10100
C1552       C  0.47051332  0.90456333  0.79359492     0.06100
C1553       C  0.49086653  0.93090630  0.79847226    -0.03800
C1554       C  0.48833267  0.94747502  0.82637387    -0.08300
C1555       C  0.46639667  0.93805590  0.85016223     0.05200
C1556       C  0.44652173  0.91188017  0.84598923    -0.03300
Br1557     Br  0.41672098  0.89695487  0.87827293    -0.03000
H1558       H  0.43373182  0.87473025  0.81716091     0.09100
H1559       H  0.00403273  0.96747671  0.82999594     0.07200
Br1560     Br  0.02361817  0.94557582  0.76884898    -0.03400
C1561       C  0.13346079  0.95661202  0.92426090    -0.10100
C1562       C  0.10697684  0.95977108  0.90548361     0.06100
C1563       C  0.11232848  0.96746195  0.87336099    -0.03800
C1564       C  0.14318083  0.97528831  0.86149588    -0.08300
C1565       C  0.16971096  0.97469449  0.88098394     0.05200
C1566       C  0.16439767  0.96308353  0.91230589    -0.03300
Br1567     Br  0.19736520  0.46096304  0.94206378    -0.03000
H1568       H  0.13007517  0.45260151  0.94943737     0.09100
H1569       H  0.14628646  0.98264546  0.83702018     0.07200
Br1570     Br  0.07770477  0.96850563  0.84539609    -0.03400
C1571       C  0.31688753  0.98936903  0.95067672    -0.10100
C1572       C  0.34405736  0.98285351  0.93235740     0.06100
C1573       C  0.34143955  0.98111026  0.89943003    -0.03800
C1574       C  0.31251901  0.98640402  0.88558313    -0.08300
C1575       C  0.28528161  0.99271999  0.90369971     0.05200
C1576       C  0.28785256  0.99490156  0.93644360    -0.03300
Br1577     Br  0.25473215  0.51411315  0.96058657    -0.03000
H1578       H  0.31871501  0.99236716  0.97573979     0.09100
H1579       H  0.31131653  0.98570003  0.86023698     0.07200
Br1580     Br  0.37649750  0.97189998  0.87154710    -0.03400
C1581       C  0.14568618  0.51189111  0.51165182    -0.10100
C1582       C  0.12271393  0.49366199  0.52876202     0.06100
C1583       C  0.13253640  0.47427003  0.55434251    -0.03800
C1584       C  0.16401654  0.47514150  0.56291981    -0.08300
C1585       C  0.18548910  0.49709475  0.54895477     0.05200
C1586       C  0.17641056  0.51473771  0.52224713    -0.03300
Br1587     Br  0.20166520  0.54897344  0.50431981    -0.03000
H1588       H  0.14065346  0.52940357  0.99498732     0.09100
H1589       H  0.16976563  0.46316663  0.58465420     0.07200
Br1590     Br  0.10480157  0.44951487  0.58258818    -0.03400
C1591       C  0.33847317  0.54803998  0.54513741    -0.10100
C1592       C  0.35892901  0.52749372  0.56051188     0.06100
C1593       C  0.34701195  0.00739603  0.58559340    -0.03800
C1594       C  0.31466849  0.00695324  0.59345101    -0.08300
C1595       C  0.29366255  0.52615756  0.57641456     0.05200
C1596       C  0.30596445  0.54726697  0.55266224    -0.03300
Br1597     Br  0.27931698  0.57286418  0.52733401    -0.03000
H1598       H  0.34733644  0.56278950  0.52547644     0.09100
H1599       H  0.30557261  0.99122068  0.61224953     0.07200
Br1600     Br  0.37313910  0.97817009  0.60770260    -0.03400
C1601       C  0.43312766  0.64323278  0.95785328    -0.10100
C1602       C  0.41639586  0.61782269  0.94547698     0.06100
C1603       C  0.38613998  0.62230508  0.93424630    -0.03800
C1604       C  0.37255659  0.65190722  0.93653924    -0.08300
C1605       C  0.38846103  0.67752930  0.95049900     0.05200
C1606       C  0.41898324  0.67222309  0.96212860    -0.03300
Br1607     Br  0.43667062  0.70016752  0.48598693    -0.03000
H1608       H  0.45614276  0.63932189  0.96773495     0.09100
H1609       H  0.34806703  0.65328358  0.93028256     0.07200
Br1610     Br  0.36025894  0.58756891  0.92135073    -0.03400
C1611       C  0.39491749  0.84689617  0.99414801    -0.10100
C1612       C  0.42039698  0.85502809  0.97304312     0.06100
C1613       C  0.42823355  0.83312194  0.94968749    -0.03800
C1614       C  0.41039281  0.80496995  0.94754034    -0.08300
C1615       C  0.38509270  0.79656674  0.96892240     0.05200
C1616       C  0.37750766  0.81848119  0.99245830    -0.03300
Br1617     Br  0.34476065  0.81201300  0.02433365    -0.03000
H1618       H  0.38833446  0.86281501  0.01262772     0.09100
H1619       H  0.41666609  0.78946894  0.92865497     0.07200
Br1620     Br  0.46284717  0.83941113  0.91967848    -0.03400
C1621       C  0.06850240  0.63599172  0.96825795    -0.10100
C1622       C  0.04189332  0.63148165  0.98890695     0.06100
C1623       C  0.03193930  0.65749155  0.00643963    -0.03800
C1624       C  0.04768670  0.68685590  0.00211672    -0.08300
C1625       C  0.07359550  0.69175415  0.98029510     0.05200
C1626       C  0.08474978  0.66488218  0.96465771    -0.03300
Br1627     Br  0.12352405  0.66430858  0.93973078    -0.03000
H1628       H  0.07763847  0.61654759  0.95492128     0.09100
H1629       H  0.04009905  0.70507913  0.01761631     0.07200
Br1630     Br  0.49884344  0.65434073  0.03894239    -0.03400
C1631       C  0.09809918  0.83254934  0.51099661    -0.10100
C1632       C  0.07420853  0.81063513  0.99849237     0.06100
C1633       C  0.04114738  0.81629699  0.99989756    -0.03800
C1634       C  0.02988069  0.84395156  0.01295901    -0.08300
C1635       C  0.05322587  0.86712960  0.51877546     0.05200
C1636       C  0.08610362  0.86215934  0.51858405    -0.03300
Br1637     Br  0.11601932  0.89573035  0.52365624    -0.03000
H1638       H  0.12343311  0.82933805  0.51136205     0.09100
H1639       H  0.00467090  0.84838830  0.01230106     0.07200
Br1640     Br  0.00992513  0.79221188  0.97830762    -0.03400
C1641       C  0.46259281  0.58475319  0.66060037    -0.10100
C1642       C  0.48876173  0.58454813  0.67982804     0.06100
C1643       C  0.01567185  0.56680232  0.67015327    -0.03800
C1644       C  0.01584996  0.55044254  0.64160533    -0.08300
C1645       C  0.48961665  0.55128427  0.62172972     0.05200
C1646       C  0.46266899  0.56856937  0.63216429    -0.03300
Br1647     Br  0.42400498  0.57042441  0.60970860    -0.03000
H1648       H  0.44150403  0.59707327  0.66812696     0.09100
H1649       H  0.03697453  0.53813414  0.63421395     0.07200
Br1650     Br  0.05372107  0.56620702  0.69347521    -0.03400
C1651       C  0.98355300  0.60112756  0.82752113    -0.10100
C1652       C  0.49069813  0.58251777  0.80084757     0.06100
C1653       C  0.51379333  0.55858514  0.80503161    -0.03800
C1654       C  0.52467429  0.55126815  0.83501866    -0.08300
C1655       C  0.51545327  0.56886054  0.86084898     0.05200
C1656       C  0.99679399  0.59552307  0.85650654    -0.03300
Br1657     Br  0.98676912  0.62333976  0.89010394    -0.03000
H1658       H  0.96926506  0.62194837  0.82530729     0.09100
H1659       H  0.53936913  0.53079953  0.83848010     0.07200
Br1660     Br  0.53419258  0.53596777  0.77193198    -0.03400
C1661       C  0.41220911  0.66593544  0.70952990    -0.10100
C1662       C  0.42786487  0.66274212  0.73796033     0.06100
C1663       C  0.41651471  0.68091901  0.76349205    -0.03800
C1664       C  0.38840859  0.69845924  0.76130032    -0.08300
C1665       C  0.37116260  0.69932223  0.73366226     0.05200
C1666       C  0.38466072  0.68422540  0.70707050    -0.03300
Br1667     Br  0.36747845  0.68903023  0.66605589    -0.03000
H1668       H  0.42096175  0.65350665  0.68922161     0.09100
H1669       H  0.37954740  0.71071919  0.78166969     0.07200
Br1670     Br  0.43916724  0.68422836  0.80164772    -0.03400
C1671       C  0.04896726  0.67929377  0.76440242    -0.10100
C1672       C  0.03903274  0.66477670  0.73665774     0.06100
C1673       C  0.06083086  0.66256713  0.71147840    -0.03800
C1674       C  0.09229925  0.67136859  0.71537720    -0.08300
C1675       C  0.10278731  0.68401767  0.74373199     0.05200
C1676       C  0.08069308  0.68780419  0.76848295    -0.03300
Br1677     Br  0.09271120  0.70289382  0.80847715    -0.03000
H1678       H  0.03247270  0.68090456  0.78429902     0.09100
H1679       H  0.10873472  0.66898891  0.69554003     0.07200
Br1680     Br  0.04930447  0.64750393  0.67137740    -0.03400
C1681       C  0.97979023  0.09989424  0.26808492     0.85600
C1682       C  0.94951250  0.11982212  0.26697094    -0.54700
C1683       C  0.94784110  0.14032214  0.24161543     0.08500
C1684       C  0.47688988  0.13712546  0.21811560     0.19400
C1685       C  0.97934095  0.08211423  0.23726000    -0.55400
C1686       C  0.97926135  0.10107210  0.21074502     0.08600
C1687       C  0.50704464  0.12342472  0.26383967    -0.54900
C1688       C  0.50581923  0.14344712  0.23875433     0.09200
H1689       H  0.93076021  0.11778691  0.28496774     0.13700
H1690       H  0.47611171  0.15295527  0.19694842    -0.00600
H1691       H  0.97809848  0.05669901  0.23583768     0.14000
H1692       H  0.52651321  0.12417631  0.27999138     0.13800
O1693       O  0.53063775  0.04652857  0.40850225    -0.81100
O1694       O  0.88028259  0.46591208  0.47518899    -0.82600
O1695       O  0.95379356  0.47620786  0.38849041    -0.79600
O1696       O  0.92683315  0.06292245  0.43348431    -0.78000
O1697       O  0.93540979  0.08234216  0.48205865    -0.79800
O1698       O  0.98527165  0.43431544  0.40062625    -0.80700
O1699       O  0.89603321  0.49751827  0.43333919    -0.82100
O1700       O  0.97966247  0.03749258  0.39356942    -0.82300
Eu1701     Eu  0.95119264  0.01008589  0.43425970     2.39200
O1702       O  0.93117025  0.01275039  0.48554267    -0.89900
O1703       O  0.00229115  0.48938391  0.43277630    -0.93500
C1704       C  0.00756170  0.04877743  0.38887348     1.01200
C1705       C  0.87516456  0.48103981  0.44905544     1.01000
C1706       C  0.96812896  0.45043022  0.38183742     1.01000
C1707       C  0.92505940  0.08472143  0.45406203     0.98800
H1708       H  0.93456224  0.44567503  0.44269529     0.28600
O1709       O  0.94829050  0.45835094  0.45514790    -1.02200
H1710       H  0.98658397  0.06373207  0.45179678     0.28600
O1711       O  0.98514531  0.04293426  0.46171032    -1.04800
O1712       O  0.93009636  0.44055487  0.06125977    -0.82000
O1713       O  0.58281234  0.01019744  0.49382999    -0.81600
O1714       O  0.96210523  0.39220137  0.45997892    -0.80000
O1715       O  0.90907764  0.04262752  0.03911420    -0.83300
O1716       O  0.99920572  0.09388768  0.00579800    -0.81200
O1717       O  0.55432105  0.44156527  0.42734106    -0.79800
O1718       O  0.53469656  0.42088671  0.03590820    -0.81400
O1719       O  0.50366854  0.01208981  0.08433166    -0.83300
O1720       O  0.53002526  0.40170498  0.48502750    -0.80000
O1721       O  0.97475419  0.05431196  0.06772337    -0.82700
O1722       O  0.92047006  0.40582976  0.49194643    -0.78400
O1723       O  0.57274696  0.49258666  0.42951788    -0.78500
O1724       O  0.54656802  0.07471748  0.47487137    -0.78100
O1725       O  0.89080081  0.49181458  0.03673675    -0.81600
O1726       O  0.98128129  0.44632813  0.07674128    -0.81000
O1727       O  0.56773065  0.48685623  0.03966869    -0.79400
Eu1728     Eu  0.92811450  0.46228150  0.00619109     2.39800
Eu1729     Eu  0.53564837  0.02086576  0.46198311     2.39600
Eu1730     Eu  0.00002805  0.43835434  0.45501165     2.38400
Eu1731     Eu  0.96346762  0.04630321  0.01349974     2.39900
Eu1732     Eu  0.51165574  0.47534060  0.03763775     2.39800
O1733       O  0.51592048  0.02677513  0.01548848    -0.93800
O1734       O  0.97985923  0.44011781  0.50760808    -0.92700
C1735       C  0.95212872  0.43856142  0.08168772     1.01400
C1736       C  0.58944087  0.99865423  0.02085130     1.00100
C1737       C  0.93501395  0.38606273  0.47428153     0.99500
C1738       C  0.88802247  0.02041702  0.04518676     1.01500
C1739       C  0.53173692  0.09575981  0.49035433     1.00400
C1740       C  0.57546733  0.46383492  0.42130140     0.99300
C1741       C  0.53829852  0.40033749  0.01401594     0.99300
C1742       C  0.98845120  0.03845571  0.08928800     1.02000
H1743       H  0.55236662  0.46077668  0.48527911     0.29300
O1744       O  0.53176388  0.47030977  0.48527543    -1.05900
H1745       H  0.95134493  0.49705075  0.05637681     0.31400
O1746       O  0.96056755  0.49538818  0.03546827    -1.08500
C1747       C  0.71252539  0.04841061  0.11844484     0.85600
C1748       C  0.69319903  0.03724297  0.09153689    -0.54700
C1749       C  0.70540434  0.01261015  0.07597405     0.08500
C1750       C  0.73679782  0.50031091  0.08886950     0.19400
C1751       C  0.71507069  0.01824843  0.13973872    -0.55400
C1752       C  0.72832886  0.49287613  0.12397691     0.08600
C1753       C  0.74621986  0.05432881  0.10504693    -0.54900
C1754       C  0.75897901  0.02944071  0.08994196     0.09200
H1755       H  0.67032547  0.04714816  0.08609627     0.13700
H1756       H  0.74679464  0.48012174  0.07600641    -0.00600
H1757       H  0.70552938  0.01591701  0.16353963     0.14000
H1758       H  0.75944227  0.07606393  0.10864118     0.13800
O1759       O  0.64558421  0.20337532  0.26729540    -0.81100
O1760       O  0.71942657  0.28505380  0.12111705    -0.82600
O1761       O  0.62855916  0.27569636  0.19420746    -0.79600
O1762       O  0.67394966  0.18974403  0.16868459    -0.78000
O1763       O  0.72149976  0.16739486  0.18000370    -0.79800
O1764       O  0.64075905  0.31802857  0.22401251    -0.80700
O1765       O  0.67511500  0.25564691  0.13457538    -0.82100
O1766       O  0.63420193  0.21347258  0.21596005    -0.82300
Eu1767     Eu  0.67571247  0.24234945  0.19038344     2.39200
O1768       O  0.72797594  0.23759727  0.17215887    -0.89900
O1769       O  0.67216431  0.26113759  0.24161099    -0.93500
C1770       C  0.62740725  0.20161736  0.24317157     1.01200
C1771       C  0.69296102  0.27134325  0.11451684     1.01000
C1772       C  0.62158018  0.30141806  0.20818604     1.01000
C1773       C  0.69343139  0.16673346  0.16913092     0.98800
H1774       H  0.68496681  0.30705711  0.17378453     0.28600
O1775       O  0.69676092  0.29363177  0.18774747    -1.02200
H1776       H  0.69224448  0.18782351  0.22678965     0.28600
O1777       O  0.70241470  0.20838635  0.22521749    -1.04800
O1778       O  0.80371292  0.31113511  0.17268584    -0.82000
O1779       O  0.72956538  0.23686794  0.32518945    -0.81600
O1780       O  0.70593513  0.35907335  0.20435260    -0.80000
O1781       O  0.78084153  0.20707950  0.15183850    -0.83300
O1782       O  0.74769573  0.15826798  0.24659961    -0.81200
O1783       O  0.66740348  0.30921272  0.29371080    -0.79800
O1784       O  0.77364471  0.33250186  0.27768954    -0.81400
O1785       O  0.82404823  0.23884659  0.25115460    -0.83300
O1786       O  0.72326442  0.34798301  0.26957841    -0.80000
O1787       O  0.81026565  0.19755948  0.22043302    -0.82700
O1788       O  0.73880765  0.34499696  0.16347124    -0.78400
O1789       O  0.66712266  0.25763606  0.31162517    -0.78500
O1790       O  0.71461132  0.17294056  0.28681798    -0.78100
O1791       O  0.78011940  0.25832598  0.13295512    -0.81600
O1792       O  0.81747363  0.30482479  0.22416000    -0.81000
O1793       O  0.77490156  0.26575550  0.31319666    -0.79400
Eu1794     Eu  0.74988484  0.28887408  0.17014695     2.39800
Eu1795     Eu  0.69995723  0.22789628  0.27598997     2.39600
Eu1796     Eu  0.69497023  0.31169819  0.23969365     2.38400
Eu1797     Eu  0.75517422  0.20410941  0.20695479     2.39900
Eu1798     Eu  0.77727852  0.27663786  0.25595017     2.39800
O1799       O  0.75373573  0.22524994  0.25805428    -0.93800
O1800       O  0.74818667  0.30877600  0.22138693    -0.92700
C1801       C  0.82297209  0.31364424  0.19535780     1.01400
C1802       C  0.75511250  0.25178275  0.33302702     1.00100
C1803       C  0.72243618  0.36531255  0.17865668     0.99500
C1804       C  0.78712557  0.22911358  0.13034091     1.01500
C1805       C  0.73222671  0.15241036  0.27320295     1.00400
C1806       C  0.66050409  0.28690004  0.31465543     0.99300
C1807       C  0.75077415  0.35291530  0.27970712     0.99300
C1808       C  0.83058459  0.21303016  0.23612841     1.02000
H1809       H  0.72304899  0.28803150  0.29314106     0.29300
O1810       O  0.72375613  0.27863947  0.27278460    -1.05900
H1811       H  0.79873975  0.25383646  0.19679149     0.31400
O1812       O  0.77730230  0.25552418  0.20507148    -1.08500
C1813       C  0.59550718  0.22151124  0.47900025     0.85600
C1814       C  0.62146220  0.22477342  0.99490586    -0.54700
C1815       C  0.63744516  0.25310537  0.99403154     0.08500
C1816       C  0.62541532  0.27608819  0.47315209     0.19400
C1817       C  0.57766299  0.24953401  0.49331485    -0.55400
C1818       C  0.59237376  0.27826294  0.48909247     0.08600
C1819       C  0.60303209  0.23257918  0.44463846    -0.54900
C1820       C  0.61931527  0.26080966  0.44126890     0.09200
H1821       H  0.62686704  0.20595754  0.01167808     0.13700
H1822       H  0.63816242  0.29908384  0.47042595    -0.00600
H1823       H  0.55640900  0.24750709  0.50777935     0.14000
H1824       H  0.59608835  0.21906552  0.42462266     0.13800
C1825       C  0.96619994  0.38556252  0.26386604     0.85600
C1826       C  0.99740568  0.36830365  0.25914451    -0.54700
C1827       C  0.00022633  0.35370929  0.23131359     0.08500
C1828       C  0.97153087  0.35693162  0.21059306     0.19400
C1829       C  0.96285410  0.40735076  0.23451564    -0.55400
C1830       C  0.96584752  0.39243170  0.20644346     0.08600
C1831       C  0.94064493  0.35977090  0.25942226    -0.54900
C1832       C  0.94276870  0.34573040  0.23086795     0.09200
H1833       H  0.51584591  0.36791846  0.27610474     0.13700
H1834       H  0.97455982  0.34406885  0.18836568    -0.00600
H1835       H  0.95528491  0.43157863  0.23640000     0.14000
H1836       H  0.91897335  0.35735142  0.27357570     0.13800
C1837       C  0.86702345  0.20630718  0.45432692     0.85600
C1838       C  0.83759653  0.21213018  0.43539232    -0.54700
C1839       C  0.81932269  0.23623394  0.44533055     0.08500
C1840       C  0.83308301  0.25363518  0.47368798     0.19400
C1841       C  0.88451406  0.23861781  0.45184492    -0.55400
C1842       C  0.86754769  0.26382672  0.46284308     0.08600
C1843       C  0.85518317  0.20277703  0.48850118    -0.54900
C1844       C  0.83786517  0.22713637  0.49911337     0.09200
H1845       H  0.83261738  0.20023641  0.41384915     0.13700
H1846       H  0.81756375  0.27293277  0.48123996    -0.00600
H1847       H  0.90868448  0.24095999  0.44271457     0.14000
H1848       H  0.86085644  0.18286153  0.00832975     0.13800
C1849       C  0.73567408  0.02838261  0.34471265     0.85600
C1850       C  0.75447612  0.02978420  0.37491986    -0.54700
C1851       C  0.75477435  0.50155312  0.39302608     0.08500
C1852       C  0.73499312  0.47483054  0.37860173     0.19400
C1853       C  0.75011467  0.49956538  0.32824102    -0.55400
C1854       C  0.74986954  0.47175227  0.34549638     0.08600
C1855       C  0.70245751  0.01645899  0.35583480    -0.54900
C1856       C  0.70137567  0.48828537  0.37347702     0.09200
H1857       H  0.77040050  0.04948956  0.37919599     0.13700
H1858       H  0.73531792  0.45210100  0.39199881    -0.00600
H1859       H  0.75745903  0.49955057  0.30372705     0.14000
H1860       H  0.68130332  0.02927330  0.34992914     0.13800
C1861       C  0.60627067  0.27704990  0.38553558    -0.10100
C1862       C  0.62860026  0.27555329  0.40950022     0.06100
C1863       C  0.65970886  0.28687827  0.40192039    -0.03800
C1864       C  0.66871974  0.29517499  0.37068871    -0.08300
C1865       C  0.64714304  0.29387792  0.34637786     0.05200
C1866       C  0.61521353  0.28691698  0.35452446    -0.03300
Br1867     Br  0.58343801  0.29142377  0.32373706    -0.03000
H1868       H  0.58184405  0.27017502  0.39084437     0.09100
H1869       H  0.69350621  0.30018689  0.36492987     0.07200
Br1870     Br  0.69240275  0.28867649  0.43186045    -0.03400
C1871       C  0.63656817  0.27533569  0.04750015    -0.10100
C1872       C  0.65437578  0.26216676  0.02286367     0.06100
C1873       C  0.68618556  0.25436890  0.02818439    -0.03800
C1874       C  0.69978984  0.26110572  0.05706198    -0.08300
C1875       C  0.68137367  0.27293040  0.08199711     0.05200
C1876       C  0.64952728  0.28033229  0.07676348    -0.03300
Br1877     Br  0.62206980  0.29602432  0.10941251    -0.03000
H1878       H  0.61171390  0.27994770  0.04477944     0.09100
H1879       H  0.72410880  0.25480418  0.06082871     0.07200
Br1880     Br  0.71075993  0.23083246  0.99875562    -0.03400
C1881       C  0.79410312  0.27450497  0.40896034    -0.10100
C1882       C  0.79225556  0.24560191  0.42570382     0.06100
C1883       C  0.77100588  0.22212208  0.41560573    -0.03800
C1884       C  0.75700192  0.22536810  0.38630133    -0.08300
C1885       C  0.76304152  0.25231146  0.36701057     0.05200
C1886       C  0.77922157  0.27816505  0.38007671    -0.03300
Br1887     Br  0.78168879  0.31897539  0.35979627    -0.03000
H1888       H  0.80937957  0.29327264  0.41684184     0.09100
H1889       H  0.74329826  0.20578897  0.37770261     0.07200
Br1890     Br  0.76349406  0.18351060  0.43955014    -0.03400
C1891       C  0.83297449  0.23358219  0.09187914    -0.10100
C1892       C  0.80226034  0.22181478  0.09931707     0.06100
C1893       C  0.78375550  0.21136989  0.07451940    -0.03800
C1894       C  0.79507481  0.21465374  0.04306606    -0.08300
C1895       C  0.82532186  0.22754995  0.03561552     0.05200
C1896       C  0.84497584  0.23520227  0.06065032    -0.03300
Br1897     Br  0.88872142  0.24711741  0.05350929    -0.03000
H1898       H  0.84756995  0.24200781  0.11044657     0.09100
H1899       H  0.78037681  0.20667381  0.02438704     0.07200
Br1900     Br  0.74254196  0.19304714  0.08277030    -0.03400
C1901       C  0.77714852  0.39059336  0.31653643    -0.10100
C1902       C  0.75378123  0.38448291  0.29467400     0.06100
C1903       C  0.73035168  0.40813578  0.28993075    -0.03800
C1904       C  0.73058502  0.43557794  0.30687162    -0.08300
C1905       C  0.75283214  0.44105666  0.32943798     0.05200
C1906       C  0.77616385  0.41795235  0.33474146    -0.03300
Br1907     Br  0.80611729  0.42080701  0.36714930    -0.03000
H1908       H  0.79543082  0.37348963  0.32049427     0.09100
H1909       H  0.71238981  0.45289705  0.30279904     0.07200
Br1910     Br  0.69557891  0.40647400  0.26168619    -0.03400
C1911       C  0.74718244  0.06396841  0.29402736    -0.10100
C1912       C  0.73543572  0.06062921  0.32560333     0.06100
C1913       C  0.72343238  0.08842810  0.33922596    -0.03800
C1914       C  0.72265190  0.11719516  0.32174791    -0.08300
C1915       C  0.73427729  0.12040361  0.29027029     0.05200
C1916       C  0.74697441  0.09298480  0.27673584    -0.03300
Br1917     Br  0.76462928  0.09283585  0.23461044    -0.03000
H1918       H  0.75707855  0.04431347  0.28193624     0.09100
H1919       H  0.71310126  0.13752021  0.33341138     0.07200
Br1920     Br  0.70828663  0.08944894  0.38227172    -0.03400
C1921       C  0.87879045  0.30357564  0.18768495    -0.10100
C1922       C  0.85471800  0.32607005  0.18923549     0.06100
C1923       C  0.86146179  0.35641162  0.19967076    -0.03800
C1924       C  0.89059161  0.36251346  0.21258693    -0.08300
C1925       C  0.91323669  0.33862098  0.21499859     0.05200
C1926       C  0.90812179  0.30970498  0.20063123    -0.03300
Br1927     Br  0.93893935  0.27694412  0.20160966    -0.03000
H1928       H  0.87346896  0.27991748  0.18007681     0.09100
H1929       H  0.89508088  0.38558742  0.22202739     0.07200
Br1930     Br  0.82957606  0.38817383  0.20181803    -0.03400
C1931       C  0.56682403  0.29545654  0.22848888    -0.10100
C1932       C  0.58877929  0.31179111  0.20842792     0.06100
C1933       C  0.58050223  0.34063637  0.19400057    -0.03800
C1934       C  0.55058935  0.35309086  0.20027069    -0.08300
C1935       C  0.52928956  0.33752076  0.22158015     0.05200
C1936       C  0.53731815  0.30836164  0.23549375    -0.03900
Br1937     Br  0.50946168  0.28635664  0.26543582    -0.03000
H1938       H  0.57341489  0.27361945  0.24028203     0.09100
H1939       H  0.54453353  0.37571911  0.18976895     0.07200
Br1940     Br  0.60992135  0.36435322  0.16697598    -0.03400
C1941       C  0.71929264  0.43466494  0.12048033    -0.10100
C1942       C  0.72878717  0.46021878  0.13852072     0.06100
C1943       C  0.73695677  0.45393156  0.17009237    -0.03800
C1944       C  0.73400086  0.42307854  0.18305614    -0.08300
C1945       C  0.72313133  0.39800339  0.16520767     0.05200
C1946       C  0.71604787  0.40404977  0.13353037    -0.03300
Br1947     Br  0.70025542  0.37153648  0.10735231    -0.03000
H1948       H  0.71362973  0.43841541  0.09612235     0.09100
H1949       H  0.74120560  0.41847404  0.20689375     0.07200
Br1950     Br  0.75495437  0.48552750  0.19598011    -0.03400
C1951       C  0.69021702  0.08061663  0.16364635    -0.10100
C1952       C  0.69847671  0.07831937  0.13151804     0.06100
C1953       C  0.69474497  0.10551194  0.11146473    -0.03800
C1954       C  0.68694385  0.13425589  0.12418056    -0.08300
C1955       C  0.68389432  0.13691493  0.15645394     0.05200
C1956       C  0.68300173  0.10979819  0.17609893    -0.03300
Br1957     Br  0.67501645  0.11252793  0.22053380    -0.03000
H1958       H  0.69119556  0.06068952  0.17982602     0.09100
H1959       H  0.68694563  0.15530578  0.10912229     0.07200
Br1960     Br  0.70311398  0.10727690  0.06686328    -0.03400
C1961       C  0.95788096  0.44950982  0.13683163    -0.10100
C1962       C  0.94499423  0.42954854  0.11454040     0.06100
C1963       C  0.93517157  0.39896185  0.12365730    -0.03800
C1964       C  0.94117733  0.38778009  0.15401756    -0.08300
C1965       C  0.95708820  0.40670459  0.17563680     0.05200
C1966       C  0.96485103  0.43827828  0.16677672    -0.03300
Br1967     Br  0.48913609  0.46600798  0.19152893    -0.03000
H1968       H  0.96582974  0.47318744  0.12969284     0.09100
H1969       H  0.93433376  0.36366927  0.15995166     0.07200
Br1970     Br  0.91642834  0.37095053  0.09463186    -0.03400
C1971       C  0.94227301  0.39708199  0.31850722    -0.10100
C1972       C  0.96514528  0.40397437  0.29425864     0.06100
C1973       C  0.98787381  0.42835794  0.29909161    -0.03800
C1974       C  0.98714500  0.44484829  0.32705187    -0.08300
C1975       C  0.96446928  0.43742948  0.35077835     0.05200
C1976       C  0.94187769  0.41357808  0.34639930    -0.03300
Br1977     Br  0.91075507  0.40194511  0.37868271    -0.03000
H1978       H  0.92492968  0.37839956  0.31691571     0.09100
H1979       H  0.50445972  0.46269321  0.33062951     0.07200
Br1980     Br  0.52147287  0.43931953  0.26943730    -0.03400
C1981       C  0.63216311  0.45049265  0.42399703    -0.10100
C1982       C  0.60633681  0.45741701  0.40526060     0.06100
C1983       C  0.61266207  0.46887625  0.37437982    -0.03800
C1984       C  0.64385712  0.47636285  0.36394669    -0.08300
C1985       C  0.66981589  0.47283844  0.38381917     0.05200
C1986       C  0.66357094  0.45729158  0.41348263    -0.03300
Br1987     Br  0.69584607  0.94749066  0.44289274    -0.03000
H1988       H  0.62827289  0.94272687  0.44869465     0.09100
H1989       H  0.64757170  0.48629652  0.34039489     0.07200
Br1990     Br  0.57885648  0.47688802  0.34648386    -0.03400
C1991       C  0.81617478  0.48236274  0.45470543    -0.10100
C1992       C  0.84357087  0.48104968  0.43530503     0.06100
C1993       C  0.84086497  0.48544035  0.40240390    -0.03800
C1994       C  0.81178458  0.49227511  0.38997447    -0.08300
C1995       C  0.78447060  0.49407228  0.40911164     0.05200
C1996       C  0.78677732  0.48920126  0.44183352    -0.03300
Br1997     Br  0.75210852  0.99778900  0.46981915    -0.03000
H1998       H  0.81794254  0.48013416  0.47999269     0.09100
H1999       H  0.81045575  0.49600816  0.36477610     0.07200
Br2000     Br  0.87556043  0.48260129  0.37218047    -0.03400
C2001       C  0.64661768  0.01334784  0.01450288    -0.10100
C2002       C  0.62277002  0.99514546  0.03040116     0.06100
C2003       C  0.63139957  0.97510562  0.05604051    -0.03800
C2004       C  0.66240925  0.97588752  0.06636611    -0.08300
C2005       C  0.68470405  0.99767253  0.05337900     0.05200
C2006       C  0.67700886  0.01533910  0.02626731    -0.03300
Br2007     Br  0.70430528  0.04854397  0.00957798    -0.03000
H2008       H  0.63900917  0.02616019  0.49201227     0.09100
H2009       H  0.66731734  0.96334071  0.08808710     0.07200
Br2010     Br  0.60229171  0.94904951  0.08167114    -0.03400
C2011       C  0.83920205  0.05189262  0.05071751    -0.10100
C2012       C  0.85792088  0.02734244  0.06195921     0.06100
C2013       C  0.84505326  0.50573158  0.08452855    -0.03800
C2014       C  0.81273820  0.50655158  0.09250837    -0.08300
C2015       C  0.79299470  0.02953237  0.07984643     0.05200
C2016       C  0.80706353  0.05339902  0.05973894    -0.03300
Br2017     Br  0.78354943  0.08734865  0.04181497    -0.03000
H2018       H  0.84908033  0.06885397  0.03341875     0.09100
H2019       H  0.80270753  0.48928374  0.10942318     0.07200
Br2020     Br  0.87011173  0.47462357  0.10547383    -0.03400
C2021       C  0.92905054  0.14194986  0.45764228    -0.10100
C2022       C  0.91276067  0.11608112  0.44573879     0.06100
C2023       C  0.88378215  0.12094331  0.43137735    -0.03800
C2024       C  0.87072234  0.15118888  0.43121099    -0.08300
C2025       C  0.88584581  0.17701548  0.44570101     0.05200
C2026       C  0.91558337  0.17156243  0.45905663    -0.03300
Br2027     Br  0.94120044  0.20031687  0.98905195    -0.03000
H2028       H  0.95153201  0.13839995  0.46868444     0.09100
H2029       H  0.84718049  0.15302175  0.42238775     0.07200
Br2030     Br  0.85907729  0.08664151  0.41575796    -0.03400
C2031       C  0.89336761  0.34598616  0.49170696    -0.10100
C2032       C  0.91846510  0.35465314  0.47046668     0.06100
C2033       C  0.92536969  0.33385089  0.44584691    -0.03800
C2034       C  0.90753681  0.30569141  0.44323340    -0.08300
C2035       C  0.88284481  0.29649111  0.46503753     0.05200
C2036       C  0.87574649  0.31780812  0.48937732    -0.03300
Br2037     Br  0.84352895  0.31117935  0.52176667    -0.03000
H2038       H  0.88733158  0.36126829  0.51089577     0.09100
H2039       H  0.91328697  0.29084162  0.42367348     0.07200
Br2040     Br  0.95851737  0.34202043  0.41457822    -0.03400
C2041       C  0.57704426  0.13197132  0.47337564    -0.10100
C2042       C  0.54751345  0.12783983  0.48968697     0.06100
C2043       C  0.53395589  0.15463519  0.50321381    -0.03800
C2044       C  0.54910001  0.18428334  0.49934499    -0.08300
C2045       C  0.57856830  0.18872595  0.48263619     0.05200
C2046       C  0.59242945  0.16147978  0.46988487    -0.03300
Br2047     Br  0.63239137  0.16240097  0.44683479    -0.03000
H2048       H  0.58856218  0.11204231  0.46279030     0.09100
H2049       H  0.53685924  0.20334735  0.51010648     0.07200
Br2050     Br  0.99455195  0.15306365  0.52693089    -0.03400
C2051       C  0.59493369  0.33418766  0.00910160    -0.10100
C2052       C  0.57834998  0.30809596  0.50074241     0.06100
C2053       C  0.54531697  0.31333097  0.50088838    -0.03800
C2054       C  0.53338547  0.34172320  0.51157077    -0.08300
C2055       C  0.55080011  0.36870588  0.02013355     0.05200
C2056       C  0.58354723  0.36338890  0.01854076    -0.03300
Br2057     Br  0.61398295  0.39656066  0.02316160    -0.03000
H2058       H  0.62023168  0.33077342  0.00875141     0.09100
H2059       H  0.50817486  0.34569243  0.50993427     0.07200
Br2060     Br  0.51510420  0.28639555  0.48111698    -0.03400
C2061       C  0.95767607  0.08705568  0.15865855    -0.10100
C2062       C  0.98299901  0.08652037  0.17894271     0.06100
C2063       C  0.50971056  0.06798013  0.17065638    -0.03800
C2064       C  0.51109487  0.05178143  0.14209879    -0.08300
C2065       C  0.98568444  0.05264860  0.12138467     0.05200
C2066       C  0.95844668  0.07005406  0.13072760    -0.03300
Br2067     Br  0.91990355  0.06976924  0.10804005    -0.03000
H2068       H  0.93647689  0.09967951  0.16526952     0.09100
H2069       H  0.53223146  0.03894443  0.13579173     0.07200
Br2070     Br  0.54573592  0.06467921  0.19669935    -0.03400
C2071       C  0.47964890  0.10066448  0.32660884    -0.10100
C2072       C  0.98562762  0.08262178  0.29940383     0.06100
C2073       C  0.00669174  0.05673361  0.30288411    -0.03800
C2074       C  0.01816492  0.04851868  0.33246512    -0.08300
C2075       C  0.01050058  0.06593036  0.35889044     0.05200
C2076       C  0.49180668  0.09267270  0.35563323    -0.03300
Br2077     Br  0.47904304  0.11705113  0.39104385    -0.03000
H2078       H  0.46622616  0.12214282  0.32514620     0.09100
H2079       H  0.03148863  0.02704682  0.33528585     0.07200
Br2080     Br  0.02155051  0.03020120  0.27005217    -0.03400
C2081       C  0.90472558  0.16692986  0.21092920    -0.10100
C2082       C  0.92072714  0.16340793  0.23914116     0.06100
C2083       C  0.90895809  0.18048226  0.26532309    -0.03800
C2084       C  0.88060474  0.19766381  0.26370982    -0.08300
C2085       C  0.86336424  0.19918779  0.23613917     0.05200
C2086       C  0.87674147  0.18465213  0.20914589    -0.03300
Br2087     Br  0.85860052  0.18910090  0.16851524    -0.03000
H2088       H  0.91351083  0.15509792  0.19026479     0.09100
H2089       H  0.87159013  0.20920954  0.28445361     0.07200
Br2090     Br  0.93123116  0.18292136  0.30376728    -0.03400
C2091       C  0.54074883  0.18322963  0.26167063    -0.10100
C2092       C  0.53233309  0.16666538  0.23469782     0.06100
C2093       C  0.55558907  0.16233478  0.21115708    -0.03800
C2094       C  0.58697431  0.17083793  0.21634832    -0.08300
C2095       C  0.59591122  0.18572817  0.24411600     0.05200
C2096       C  0.57222554  0.19210767  0.26677915    -0.03300
Br2097     Br  0.58158241  0.21161243  0.30538414    -0.03000
H2098       H  0.52314171  0.18641355  0.28034066     0.09100
H2099       H  0.60453084  0.16679506  0.19782846     0.07200
Br2100     Br  0.54579846  0.14534199  0.17138604    -0.03400
C2101       C  0.98589282  0.09912641  0.76892178     0.85600
C2102       C  0.95575663  0.11920482  0.76661301    -0.54700
C2103       C  0.95492275  0.13921573  0.74084035     0.08500
C2104       C  0.48444984  0.13523060  0.71823422     0.19400
C2105       C  0.98626861  0.08054019  0.73846428    -0.55400
C2106       C  0.98658816  0.09906706  0.71152132     0.08600
C2107       C  0.51339350  0.12214188  0.76482310    -0.54900
C2108       C  0.51286793  0.14182839  0.73954033     0.09200
H2109       H  0.93657688  0.11784607  0.78420221     0.13700
H2110       H  0.48412657  0.15071478  0.69680466    -0.00600
H2111       H  0.98553742  0.05498912  0.73781838     0.14000
H2112       H  0.53260344  0.12276424  0.78130245     0.13800
O2113       O  0.53371450  0.04971944  0.91078943    -0.81100
O2114       O  0.88065756  0.46884800  0.97290340    -0.82600
O2115       O  0.95532111  0.47729537  0.88732192    -0.79600
O2116       O  0.93051799  0.06540871  0.93228922    -0.78000
O2117       O  0.93597091  0.08342974  0.98198770    -0.79800
O2118       O  0.98524343  0.43469861  0.90093562    -0.80700
O2119       O  0.89649027  0.49981593  0.93031109    -0.82100
O2120       O  0.98277560  0.04119627  0.89459610    -0.82300
Eu2121     Eu  0.95210591  0.01165029  0.93309585     2.39200
O2122       O  0.93037393  0.01399626  0.98413735    -0.89900
O2123       O  0.00353287  0.49136836  0.93281706    -0.93500
C2124       C  0.01088334  0.05253697  0.89094267     1.01200
C2125       C  0.87554126  0.48361943  0.94648481     1.01000
C2126       C  0.96889082  0.45087637  0.88152162     1.01000
C2127       C  0.92806628  0.08663895  0.95334814     0.98800
H2128       H  0.93529471  0.44716107  0.94187710     0.28600
O2129       O  0.94882633  0.46005218  0.95433256    -1.02200
H2130       H  0.98691480  0.06434517  0.95275224     0.28600
O2131       O  0.98510541  0.04348948  0.96241734    -1.04800
O2132       O  0.92873482  0.43837368  0.56142366    -0.82000
O2133       O  0.58387434  0.01317552  0.99448102    -0.81600
O2134       O  0.96340467  0.39335309  0.96109602    -0.80000
O2135       O  0.91087603  0.04306836  0.53937198    -0.83300
O2136       O  0.00470618  0.09048116  0.50478362    -0.81200
O2137       O  0.55449652  0.44399796  0.92645229    -0.79800
O2138       O  0.53684628  0.41914350  0.53493978    -0.81400
O2139       O  0.50560887  0.01008817  0.58421185    -0.83300
O2140       O  0.52977758  0.40385275  0.98558219    -0.80000
O2141       O  0.97703104  0.05287543  0.56805469    -0.82700
O2142       O  0.92142328  0.40691702  0.99265695    -0.78400
O2143       O  0.57361992  0.49450368  0.93117655    -0.78500
O2144       O  0.54266863  0.07748321  0.97725356    -0.78100
O2145       O  0.89174766  0.49186786  0.53668610    -0.81600
O2146       O  0.97967406  0.44538851  0.57710251    -0.81000
O2147       O  0.56836159  0.48468636  0.53917604    -0.79400
Eu2148     Eu  0.92840377  0.46063961  0.50712317     2.39800
Eu2149     Eu  0.53626429  0.02277151  0.96327353     2.39600
Eu2150     Eu  0.00059596  0.44025478  0.95482022     2.38400
Eu2151     Eu  0.96506212  0.04565502  0.51342467     2.39900
Eu2152     Eu  0.51231972  0.47320582  0.53764046     2.39800
O2153       O  0.51639386  0.02451630  0.51463483    -0.93800
O2154       O  0.97981748  0.44271061  0.00695424    -0.92700
C2155       C  0.95055134  0.43714137  0.58196636     1.01400
C2156       C  0.58906191  0.99615920  0.52031021     1.00100
C2157       C  0.93650934  0.38691723  0.97573752     0.99500
C2158       C  0.88966483  0.02094966  0.54517459     1.01500
C2159       C  0.52695483  0.09897274  0.99136712     1.00400
C2160       C  0.57600334  0.46618228  0.92149590     0.99300
C2161       C  0.53999456  0.39849381  0.51300759     0.99300
C2162       C  0.99114519  0.03687053  0.58934181     1.02000
H2163       H  0.55271809  0.46250589  0.98604124     0.29300
O2164       O  0.53206419  0.47193333  0.98577437    -1.05900
H2165       H  0.95231547  0.49578776  0.55676021     0.31400
O2166       O  0.96135590  0.49404076  0.53578490    -1.08500
C2167       C  0.71407276  0.04538976  0.61559778     0.85600
C2168       C  0.69508417  0.03616839  0.58767015    -0.54700
C2169       C  0.70684630  0.01177533  0.57132255     0.08500
C2170       C  0.73691127  0.49742126  0.58493298     0.19400
C2171       C  0.71507667  0.01440372  0.63575676    -0.55400
C2172       C  0.72712236  0.48894604  0.61956396     0.08600
C2173       C  0.74814923  0.05058965  0.60310209    -0.54900
C2174       C  0.76015132  0.02600530  0.58708220     0.09200
H2175       H  0.67254367  0.04688950  0.58239063     0.13700
H2176       H  0.74672738  0.47740182  0.57166515    -0.00600
H2177       H  0.70549226  0.01162028  0.65952416     0.14000
H2178       H  0.76197714  0.07183422  0.60726383     0.13800
O2179       O  0.65350613  0.20068504  0.76631649    -0.81100
O2180       O  0.72524154  0.28345455  0.61964926    -0.82600
O2181       O  0.63423417  0.27373510  0.69185751    -0.79600
O2182       O  0.68070057  0.18662623  0.66855113    -0.78000
O2183       O  0.72821818  0.16405728  0.67978818    -0.79800
O2184       O  0.64665578  0.31565935  0.72195888    -0.80700
O2185       O  0.68081139  0.25441711  0.63356481    -0.82100
O2186       O  0.64053666  0.21253708  0.71575620    -0.82300
Eu2187     Eu  0.68187316  0.23997399  0.68897468     2.39200
O2188       O  0.73413866  0.23528850  0.67007426    -0.89900
O2189       O  0.67832348  0.25798968  0.74046071    -0.93500
C2190       C  0.63460848  0.19981496  0.74273172     1.01200
C2191       C  0.69846722  0.27020954  0.61343298     1.01000
C2192       C  0.62741239  0.29977474  0.70554449     1.01000
C2193       C  0.69994750  0.16337534  0.66934581     0.98800
H2194       H  0.69095486  0.30416668  0.67243603     0.28600
O2195       O  0.70297905  0.29088588  0.68632178    -1.02200
H2196       H  0.69964698  0.18609773  0.72528653     0.28600
O2197       O  0.70980244  0.20664050  0.72332922    -1.04800
O2198       O  0.80957570  0.31002655  0.67126520    -0.82000
O2199       O  0.73854956  0.23333224  0.82284605    -0.81600
O2200       O  0.71058541  0.35509755  0.70108690    -0.80000
O2201       O  0.78658254  0.20444086  0.64929934    -0.83300
O2202       O  0.75617191  0.15602539  0.74277865    -0.81200
O2203       O  0.67250922  0.30515244  0.79214285    -0.79800
O2204       O  0.77787510  0.33058066  0.77475636    -0.81400
O2205       O  0.83154484  0.23824943  0.74828102    -0.83300
O2206       O  0.72655012  0.34490098  0.76903519    -0.80000
O2207       O  0.81818104  0.19687931  0.71754165    -0.82700
O2208       O  0.74365644  0.34197607  0.66003436    -0.78400
O2209       O  0.67600648  0.25430979  0.81144259    -0.78500
O2210       O  0.72258502  0.17066989  0.78257262    -0.78100
O2211       O  0.78581046  0.25583104  0.63094452    -0.81600
O2212       O  0.82321504  0.30395460  0.72276844    -0.81000
O2213       O  0.78384030  0.26170150  0.80985401    -0.79400
Eu2214     Eu  0.75605875  0.28659881  0.66826365     2.39800
Eu2215     Eu  0.70769745  0.22546824  0.77420199     2.39600
Eu2216     Eu  0.70054245  0.30853569  0.73817162     2.38400
Eu2217     Eu  0.76241376  0.20220185  0.70448580     2.39900
Eu2218     Eu  0.78373652  0.27459162  0.75347692     2.39800
O2219       O  0.76118506  0.22294798  0.75569897    -0.93800
O2220       O  0.75380652  0.30641807  0.71950958    -0.92700
C2221       C  0.82858913  0.31308601  0.69411180     1.01400
C2222       C  0.76452889  0.24784733  0.83008658     1.00100
C2223       C  0.72657962  0.36172103  0.67512750     0.99500
C2224       C  0.79252184  0.22659543  0.62798851     1.01500
C2225       C  0.74020232  0.15023647  0.76896273     1.00400
C2226       C  0.66744072  0.28310852  0.81384318     0.99300
C2227       C  0.75454073  0.35045304  0.77748293     0.99300
C2228       C  0.83843681  0.21258207  0.73320125     1.02000
H2229       H  0.73005008  0.28546206  0.79163599     0.29300
O2230       O  0.73054621  0.27634414  0.77113738    -1.05900
H2231       H  0.80581268  0.25235739  0.69413491     0.31400
O2232       O  0.78438795  0.25362901  0.70256274    -1.08500
C2233       C  0.59095642  0.22412444  0.97625419     0.85600
C2234       C  0.62743227  0.22261081  0.49532167    -0.54700
C2235       C  0.64273484  0.25139441  0.49377478     0.08500
C2236       C  0.62224388  0.27800570  0.97190358     0.19400
C2237       C  0.57242018  0.25261887  0.98836116    -0.55400
C2238       C  0.58810957  0.28101109  0.98563800     0.08600
C2239       C  0.60091610  0.23466444  0.94228517    -0.54900
C2240       C  0.61807214  0.26236924  0.93970252     0.09200
H2241       H  0.63419482  0.20389900  0.51164728     0.13700
H2242       H  0.63599061  0.30049419  0.96956979    -0.00600
H2243       H  0.54932918  0.25073002  0.99955468     0.14000
H2244       H  0.59473337  0.22143203  0.92184603     0.13800
C2245       C  0.97206907  0.38631864  0.76294663     0.85600
C2246       C  0.00410155  0.37073791  0.75696285    -0.54700
C2247       C  0.00667155  0.35604528  0.72905257     0.08500
C2248       C  0.97686459  0.35810001  0.70938325     0.19400
C2249       C  0.96686587  0.40806860  0.73390431    -0.55400
C2250       C  0.96950286  0.39340881  0.70562943     0.08600
C2251       C  0.94745268  0.35945148  0.75901476    -0.54900
C2252       C  0.94887375  0.34578229  0.73033373     0.09200
H2253       H  0.52343517  0.37145524  0.77306768     0.13700
H2254       H  0.97970199  0.34542287  0.68703977    -0.00600
H2255       H  0.95813652  0.43183717  0.73626537     0.14000
H2256       H  0.92601671  0.35653827  0.77344387     0.13800
C2257       C  0.86988592  0.20650607  0.95938375     0.85600
C2258       C  0.84193306  0.21236880  0.93858096    -0.54700
C2259       C  0.82299108  0.23623948  0.94725038     0.08500
C2260       C  0.83492697  0.25389032  0.97637074     0.19400
C2261       C  0.88749658  0.23857180  0.95768676    -0.55400
C2262       C  0.87001024  0.26387181  0.96733745     0.08600
C2263       C  0.85612862  0.20303149  0.99293127    -0.54900
C2264       C  0.83808208  0.22746709  0.00241858     0.09200
H2265       H  0.83870556  0.20064295  0.91653115     0.13700
H2266       H  0.81914856  0.27339748  0.98285158    -0.00600
H2267       H  0.91194190  0.24086934  0.94944919     0.14000
H2268       H  0.86059075  0.18250166  0.50351326     0.13800
C2269       C  0.73659504  0.02680841  0.83901116     0.85600
C2270       C  0.75604913  0.02770061  0.86878058    -0.54700
C2271       C  0.75605536  0.50023490  0.88648539     0.08500
C2272       C  0.73447700  0.47418838  0.87307735     0.19400
C2273       C  0.74926693  0.49786057  0.82209066    -0.55400
C2274       C  0.74799352  0.47025136  0.83954382     0.08600
C2275       C  0.70294882  0.01612500  0.85047856    -0.54900
C2276       C  0.70132464  0.48911276  0.86865841     0.09200
H2277       H  0.77250768  0.04701619  0.87287944     0.13700
H2278       H  0.73359931  0.45169559  0.88699364    -0.00600
H2279       H  0.75706042  0.49759809  0.79772089     0.14000
H2280       H  0.68203651  0.02939687  0.84468129     0.13800
C2281       C  0.60926017  0.27946995  0.88319547    -0.10100
C2282       C  0.63016857  0.27585332  0.90823196     0.06100
C2283       C  0.66273564  0.28178411  0.90157583    -0.03800
C2284       C  0.67383746  0.28888785  0.87068069    -0.08300
C2285       C  0.65330734  0.29001710  0.84537902     0.05200
C2286       C  0.62056321  0.28639647  0.85211816    -0.03300
Br2287     Br  0.59092450  0.28807601  0.81900777    -0.03000
H2288       H  0.58411945  0.27535635  0.88754964     0.09100
H2289       H  0.69919060  0.29049320  0.86592776     0.07200
Br2290     Br  0.69414425  0.27558650  0.93227981    -0.03400
C2291       C  0.64094544  0.27153058  0.54781674    -0.10100
C2292       C  0.65949948  0.26101511  0.52238571     0.06100
C2293       C  0.69222913  0.25691130  0.52638890    -0.03800
C2294       C  0.70556473  0.26303867  0.55552451    -0.08300
C2295       C  0.68643643  0.27215008  0.58121778     0.05200
C2296       C  0.65397640  0.27726868  0.57675483    -0.03300
Br2297     Br  0.62574281  0.29120793  0.60970501    -0.03000
H2298       H  0.61567109  0.27392763  0.54584209     0.09100
H2299       H  0.73043516  0.25850601  0.55871081     0.07200
Br2300     Br  0.71908262  0.24031148  0.49404463    -0.03400
C2301       C  0.80351556  0.27219224  0.90587199    -0.10100
C2302       C  0.79799925  0.24528836  0.92506726     0.06100
C2303       C  0.77661941  0.22188364  0.91494631    -0.03800
C2304       C  0.76442876  0.22383250  0.88468831    -0.08300
C2305       C  0.77309191  0.24899288  0.86389003     0.05200
C2306       C  0.79127271  0.27425947  0.87568872    -0.03300
Br2307     Br  0.80126488  0.31212171  0.85190305    -0.03000
H2308       H  0.81991508  0.29031593  0.91310885     0.09100
H2309       H  0.74986375  0.20454284  0.87677434     0.07200
Br2310     Br  0.76684745  0.18460704  0.94026939    -0.03400
C2311       C  0.83680811  0.23205317  0.58836289    -0.10100
C2312       C  0.80670338  0.21938691  0.59676690     0.06100
C2313       C  0.78744003  0.20861860  0.57272660    -0.03800
C2314       C  0.79729751  0.21262952  0.54102707    -0.08300
C2315       C  0.82673804  0.22668134  0.53261949     0.05200
C2316       C  0.84734552  0.23460452  0.55677497    -0.03300
Br2317     Br  0.89028269  0.24847245  0.54797788    -0.03000
H2318       H  0.85190482  0.24071279  0.60643166     0.09100
H2319       H  0.78205907  0.20443161  0.52286510     0.07200
Br2320     Br  0.74692202  0.18940169  0.58210991    -0.03400
C2321       C  0.77574226  0.38752301  0.81719823    -0.10100
C2322       C  0.75758091  0.38250217  0.79082059     0.06100
C2323       C  0.73694869  0.40715603  0.78118669    -0.03800
C2324       C  0.73621786  0.43536379  0.79672736    -0.08300
C2325       C  0.75269283  0.43954401  0.82409832     0.05200
C2326       C  0.77185721  0.41472670  0.83506599    -0.03300
Br2327     Br  0.79074461  0.41432137  0.87517424    -0.03000
H2328       H  0.79109832  0.36932153  0.82540577     0.09100
H2329       H  0.72041720  0.45359171  0.78859723     0.07200
Br2330     Br  0.70487623  0.40460060  0.75023524    -0.03400
C2331       C  0.75145012  0.06173548  0.78896041    -0.10100
C2332       C  0.73812203  0.05873449  0.82000099     0.06100
C2333       C  0.72709091  0.08677355  0.83366159    -0.03800
C2334       C  0.72861533  0.11559425  0.81667491    -0.08300
C2335       C  0.74124685  0.11839766  0.78560655     0.05200
C2336       C  0.75310808  0.09076706  0.77196623    -0.03300
Br2337     Br  0.77150073  0.09018481  0.73009511    -0.03000
H2338       H  0.76116700  0.04193153  0.77702045     0.09100
H2339       H  0.71973712  0.13620515  0.82834768     0.07200
Br2340     Br  0.70999249  0.08812757  0.87600623    -0.03400
C2341       C  0.88447513  0.30494264  0.68572982    -0.10100
C2342       C  0.85993828  0.32669382  0.68866948     0.06100
C2343       C  0.86580571  0.35602721  0.70184485    -0.03800
C2344       C  0.89490090  0.36186100  0.71517364    -0.08300
C2345       C  0.91849082  0.33860952  0.71543035     0.05200
C2346       C  0.91353585  0.31052284  0.69942477    -0.03300
Br2347     Br  0.94382446  0.27743989  0.69915074    -0.03000
H2348       H  0.87964216  0.28182036  0.67650363     0.09100
H2349       H  0.89874387  0.38425102  0.72624921     0.07200
Br2350     Br  0.83251628  0.38616191  0.70664751    -0.03400
C2351       C  0.57011894  0.29419968  0.71878711    -0.10100
C2352       C  0.59500156  0.31210778  0.70435967     0.06100
C2353       C  0.58979181  0.34390172  0.69548500    -0.03800
C2354       C  0.56045093  0.35763554  0.70234528    -0.08300
C2355       C  0.53614941  0.34014792  0.71833466     0.05200
C2356       C  0.54100900  0.30808293  0.72614291    -0.03900
Br2357     Br  0.50975132  0.28314835  0.74955593    -0.03000
H2358       H  0.57409739  0.27001695  0.72650570     0.09100
H2359       H  0.55697735  0.38231643  0.69620859     0.07200
Br2360     Br  0.62258753  0.36949180  0.67477953    -0.03400
C2361       C  0.71836658  0.43038520  0.61671950    -0.10100
C2362       C  0.72865307  0.45627387  0.63391980     0.06100
C2363       C  0.73931521  0.45033978  0.66469014    -0.03800
C2364       C  0.73852761  0.41947559  0.67762507    -0.08300
C2365       C  0.72584431  0.39421735  0.66128584     0.05200
C2366       C  0.71596205  0.39988738  0.63038231    -0.03300
Br2367     Br  0.69780462  0.36693583  0.60627446    -0.03000
H2368       H  0.71150738  0.43376896  0.59267919     0.09100
H2369       H  0.74874231  0.41508247  0.70025299     0.07200
Br2370     Br  0.75754939  0.48264706  0.68954559    -0.03400
C2371       C  0.69257118  0.07691114  0.66181324    -0.10100
C2372       C  0.70114732  0.07526195  0.62965013     0.06100
C2373       C  0.69956999  0.10327555  0.61047017    -0.03800
C2374       C  0.69313247  0.13188657  0.62398887    -0.08300
C2375       C  0.69010123  0.13377469  0.65631642     0.05200
C2376       C  0.68752309  0.10616161  0.67525673    -0.03300
Br2377     Br  0.67924014  0.10790398  0.71972728    -0.03000
H2378       H  0.69186180  0.05630666  0.67725226     0.09100
H2379       H  0.69416994  0.15331492  0.60951473     0.07200
Br2380     Br  0.70998557  0.10617655  0.56619938    -0.03400
C2381       C  0.95440989  0.44974609  0.63672714    -0.10100
C2382       C  0.94296875  0.42862702  0.61478376     0.06100
C2383       C  0.93516289  0.39763905  0.62431013    -0.03800
C2384       C  0.94272816  0.38715206  0.65445423    -0.08300
C2385       C  0.95821514  0.40715872  0.67543651     0.05200
C2386       C  0.96314322  0.43924063  0.66639753    -0.03300
Br2387     Br  0.48705591  0.46928028  0.68972582    -0.03000
H2388       H  0.96049297  0.47383702  0.62923047     0.09100
H2389       H  0.93772404  0.36269069  0.66049465     0.07200
Br2390     Br  0.91742704  0.36821419  0.59600562    -0.03400
C2391       C  0.94868114  0.39467741  0.81857589    -0.10100
C2392       C  0.97019622  0.40416683  0.79383113     0.06100
C2393       C  0.99025461  0.43076018  0.79861490    -0.03800
C2394       C  0.98771241  0.44727145  0.82654372    -0.08300
C2395       C  0.96609352  0.43754740  0.85048952     0.05200
C2396       C  0.94653412  0.41109803  0.84644370    -0.03300
Br2397     Br  0.91715213  0.39580526  0.87893529    -0.03000
H2398       H  0.93391528  0.37386862  0.81757359     0.09100
H2399       H  0.50333448  0.46719976  0.83004454     0.07200
Br2400     Br  0.52282780  0.44552053  0.76886210    -0.03400
C2401       C  0.63351462  0.45734082  0.92428329    -0.10100
C2402       C  0.60706496  0.46004066  0.90538173     0.06100
C2403       C  0.61245339  0.46754076  0.87321145    -0.03800
C2404       C  0.64329528  0.47544332  0.86137037    -0.08300
C2405       C  0.66973900  0.47523800  0.88095937     0.05200
C2406       C  0.66441790  0.46407024  0.91240464    -0.03300
Br2407     Br  0.69749985  0.95824836  0.94148049    -0.03000
H2408       H  0.63014441  0.95132006  0.94920209     0.09100
H2409       H  0.64645714  0.48259100  0.83684263     0.07200
Br2410     Br  0.57791661  0.46831450  0.84513094    -0.03400
C2411       C  0.81684288  0.49047174  0.95074232    -0.10100
C2412       C  0.84384064  0.48275834  0.93268991     0.06100
C2413       C  0.84112561  0.47995215  0.89988260    -0.03800
C2414       C  0.81227223  0.48520207  0.88587038    -0.08300
C2415       C  0.78520615  0.49266054  0.90372373     0.05200
C2416       C  0.78790427  0.49606837  0.93631570    -0.03300
Br2417     Br  0.75411777  0.01109375  0.96133863    -0.03000
H2418       H  0.81879009  0.49439263  0.97564270     0.09100
H2419       H  0.81103460  0.48371902  0.86058268     0.07200
Br2420     Br  0.87607513  0.46960798  0.87236727    -0.03400
C2421       C  0.64562691  0.01138933  0.51183452    -0.10100
C2422       C  0.62263574  0.99319583  0.52892071     0.06100
C2423       C  0.63238567  0.97399117  0.55468390    -0.03800
C2424       C  0.66381811  0.97512069  0.56350300    -0.08300
C2425       C  0.68528916  0.99707713  0.54948396     0.05200
C2426       C  0.67622962  0.01452776  0.52264557    -0.03300
Br2427     Br  0.70116801  0.04902451  0.50482968    -0.03000
H2428       H  0.64094552  0.02864051  0.99473164     0.09100
H2429       H  0.66956239  0.96321591  0.58529173     0.07200
Br2430     Br  0.60454007  0.94911922  0.58273338    -0.03400
C2431       C  0.83860835  0.04825903  0.54538852    -0.10100
C2432       C  0.85918110  0.02794246  0.56089358     0.06100
C2433       C  0.84665781  0.50693421  0.58513154    -0.03800
C2434       C  0.81434609  0.50661235  0.59299995    -0.08300
C2435       C  0.79381771  0.02625654  0.57666350     0.05200
C2436       C  0.80606884  0.04723955  0.55277742    -0.03300
Br2437     Br  0.77929972  0.07216082  0.52694632    -0.03000
H2438       H  0.84740707  0.06292495  0.52564069     0.09100
H2439       H  0.80518169  0.49079772  0.61170106     0.07200
Br2440     Br  0.87261914  0.47746917  0.60712036    -0.03400
C2441       C  0.93352167  0.14340910  0.95750539    -0.10100
C2442       C  0.91672307  0.11792880  0.94536205     0.06100
C2443       C  0.88627092  0.12220433  0.93457893    -0.03800
C2444       C  0.87254168  0.15169770  0.93710780    -0.08300
C2445       C  0.88857796  0.17743959  0.95071508     0.05200
C2446       C  0.91928497  0.17232045  0.96194885    -0.03300
Br2447     Br  0.93712345  0.20081222  0.48508551    -0.03000
H2448       H  0.95667459  0.13959426  0.96711724     0.09100
H2449       H  0.84792642  0.15294512  0.93125243     0.07200
Br2450     Br  0.86045488  0.08728448  0.92196364    -0.03400
C2451       C  0.89515222  0.34680175  0.99425107    -0.10100
C2452       C  0.92068855  0.35491378  0.97321165     0.06100
C2453       C  0.92852877  0.33302492  0.94984075    -0.03800
C2454       C  0.91064497  0.30490194  0.94762684    -0.08300
C2455       C  0.88528246  0.29651530  0.96894892     0.05200
C2456       C  0.87768040  0.31843378  0.99248065    -0.03300
Br2457     Br  0.84479078  0.31207378  0.02422869    -0.03000
H2458       H  0.88855089  0.36271661  0.01272842     0.09100
H2459       H  0.91693040  0.28941994  0.92873078     0.07200
Br2460     Br  0.96318735  0.33932152  0.91988201    -0.03400
C2461       C  0.56893889  0.13575531  0.96883615    -0.10100
C2462       C  0.54196731  0.13136855  0.98902283     0.06100
C2463       C  0.53140885  0.15762482  0.00584363    -0.03800
C2464       C  0.54698455  0.18706465  0.00132286    -0.08300
C2465       C  0.57339962  0.19178711  0.98006743     0.05200
C2466       C  0.58496555  0.16474951  0.96499005    -0.03300
Br2467     Br  0.62385569  0.16419444  0.94025375    -0.03000
H2468       H  0.57847617  0.11616772  0.95598633     0.09100
H2469       H  0.53879058  0.20548494  0.01626657     0.07200
Br2470     Br  0.99733402  0.15498070  0.03749514    -0.03400
C2471       C  0.59837127  0.33248356  0.51072817    -0.10100
C2472       C  0.57443547  0.31077006  0.99804691     0.06100
C2473       C  0.54142519  0.31654733  0.99917791    -0.03800
C2474       C  0.53010499  0.34404932  0.01250802    -0.08300
C2475       C  0.55348621  0.36703312  0.51874046     0.05200
C2476       C  0.58637738  0.36208829  0.51838118    -0.03300
Br2477     Br  0.61629204  0.39569690  0.52334753    -0.03000
H2478       H  0.62371060  0.32929253  0.51102418     0.09100
H2479       H  0.50491971  0.34855580  0.01165663     0.07200
Br2480     Br  0.51056041  0.29284405  0.97675807    -0.03400
C2481       C  0.96287626  0.08456949  0.66057514    -0.10100
C2482       C  0.98909337  0.08417727  0.67974505     0.06100
C2483       C  0.51578029  0.06628372  0.66995030    -0.03800
C2484       C  0.51577265  0.04992460  0.64141873    -0.08300
C2485       C  0.98956939  0.05095611  0.62165271     0.05200
C2486       C  0.96274234  0.06834089  0.63217474    -0.03300
Br2487     Br  0.92395435  0.07016782  0.60993630    -0.03000
H2488       H  0.94190276  0.09705580  0.66813362     0.09100
H2489       H  0.53679545  0.03747799  0.63397554     0.07200
Br2490     Br  0.55386649  0.06531108  0.69320036    -0.03400
C2491       C  0.48419190  0.10188956  0.82724892    -0.10100
C2492       C  0.99123865  0.08308268  0.80085052     0.06100
C2493       C  0.01422310  0.05910348  0.80530249    -0.03800
C2494       C  0.02492379  0.05191617  0.83538917    -0.08300
C2495       C  0.01550155  0.06956107  0.86111575     0.05200
C2496       C  0.49707089  0.09620224  0.85640057    -0.03300
Br2497     Br  0.48691586  0.12417425  0.88982824    -0.03000
H2498       H  0.47015894  0.12286434  0.82482276     0.09100
H2499       H  0.03955557  0.03142995  0.83902253     0.07200
Br2500     Br  0.03458765  0.03612480  0.77245404    -0.03400
C2501       C  0.91254462  0.16582669  0.70910128    -0.10100
C2502       C  0.92843746  0.16285035  0.73742535     0.06100
C2503       C  0.91720631  0.18115855  0.76290969    -0.03800
C2504       C  0.88896498  0.19850803  0.76086750    -0.08300
C2505       C  0.87146961  0.19911285  0.73338948     0.05200
C2506       C  0.88487675  0.18398815  0.70676421    -0.03300
Br2507     Br  0.86744497  0.18868514  0.66585027    -0.03000
H2508       H  0.92120683  0.15334001  0.68879465     0.09100
H2509       H  0.88022198  0.21085454  0.78122917     0.07200
Br2510     Br  0.94023150  0.18492896  0.80078273    -0.03400
C2511       C  0.54918212  0.17960450  0.76386942    -0.10100
C2512       C  0.53960052  0.16485456  0.73612182     0.06100
C2513       C  0.56176064  0.16225710  0.71130888    -0.03800
C2514       C  0.59319417  0.17093847  0.71559695    -0.08300
C2515       C  0.60330307  0.18382727  0.74398131     0.05200
C2516       C  0.58088166  0.18791913  0.76837473    -0.03300
Br2517     Br  0.59243685  0.20299939  0.80850645    -0.03000
H2518       H  0.53242118  0.18141812  0.78352310     0.09100
H2519       H  0.60990939  0.16833332  0.69602415     0.07200
Br2520     Br  0.55074099  0.14678799  0.67122119    -0.03400
C2521       C  0.97955132  0.59941289  0.26847671     0.85600
C2522       C  0.94949520  0.61964908  0.26721251    -0.54700
C2523       C  0.94808840  0.64006367  0.24177854     0.08500
C2524       C  0.47718498  0.63665640  0.21811504     0.19400
C2525       C  0.97894160  0.58147221  0.23773453    -0.55400
C2526       C  0.97907485  0.60034590  0.21113172     0.08600
C2527       C  0.50674866  0.62255500  0.26410925    -0.54900
C2528       C  0.50600427  0.64260106  0.23902394     0.09200
H2529       H  0.93066545  0.61787068  0.28514681     0.13700
H2530       H  0.47676533  0.65253593  0.19695704    -0.00600
H2531       H  0.97754381  0.55604408  0.23645145     0.14000
H2532       H  0.52606900  0.62307032  0.28044713     0.13800
O2533       O  0.53033208  0.54664637  0.40833841    -0.81100
O2534       O  0.88013503  0.96608555  0.47525395    -0.82600
O2535       O  0.95345830  0.97596672  0.38832832    -0.79600
O2536       O  0.92632063  0.56270506  0.43411910    -0.78000
O2537       O  0.93473165  0.58186555  0.48282883    -0.79800
O2538       O  0.98491323  0.93407363  0.40053550    -0.80700
O2539       O  0.89591441  0.99770348  0.43340701    -0.82100
O2540       O  0.97947576  0.53786170  0.39414016    -0.82300
Eu2541     Eu  0.95116286  0.51009114  0.43461473     2.39200
O2542       O  0.93118842  0.51250608  0.48591458    -0.89900
O2543       O  0.00231274  0.98929490  0.43241552    -0.93500
C2544       C  0.00737360  0.54912682  0.38944932     1.01200
C2545       C  0.87501814  0.98126001  0.44915585     1.01000
C2546       C  0.96769874  0.95011960  0.38175470     1.01000
C2547       C  0.92436529  0.58434286  0.45484943     0.98800
H2548       H  0.93447378  0.94568673  0.44261554     0.28600
O2549       O  0.94825110  0.95840753  0.45497563    -1.02200
H2550       H  0.98630048  0.56382751  0.45232161     0.28600
O2551       O  0.98496386  0.54299724  0.46217339    -1.04800
O2552       O  0.92972439  0.94055642  0.06105930    -0.82000
O2553       O  0.58298252  0.51071765  0.49328465    -0.81600
O2554       O  0.96220346  0.89220041  0.46031967    -0.80000
O2555       O  0.90958468  0.54267890  0.03917534    -0.83300
O2556       O  0.99961087  0.59398069  0.00558637    -0.81200
O2557       O  0.55440152  0.94157866  0.42767881    -0.79800
O2558       O  0.53451604  0.92082460  0.03586479    -0.81400
O2559       O  0.50328499  0.51221523  0.08414940    -0.83300
O2560       O  0.52972587  0.90159984  0.48495581    -0.80000
O2561       O  0.97493524  0.55454808  0.06759917    -0.82700
O2562       O  0.92056962  0.90595795  0.49222828    -0.78400
O2563       O  0.57297417  0.99253504  0.43009517    -0.78500
O2564       O  0.54621940  0.57481553  0.47456712    -0.78100
O2565       O  0.89033372  0.99176871  0.03652875    -0.81600
O2566       O  0.98097178  0.94595730  0.07648843    -0.81000
O2567       O  0.56784850  0.98651163  0.03949578    -0.79400
Eu2568     Eu  0.92781010  0.96230925  0.00605510     2.39800
Eu2569     Eu  0.53557929  0.52089867  0.46173270     2.39600
Eu2570     Eu  0.99999181  0.93833910  0.45480930     2.38400
Eu2571     Eu  0.96383923  0.54639042  0.01343519     2.39900
Eu2572     Eu  0.51168128  0.97530835  0.03764872     2.39800
O2573       O  0.51569083  0.52680933  0.01540234    -0.93800
O2574       O  0.97980904  0.94031527  0.50737618    -0.92700
C2575       C  0.95177941  0.93835318  0.08143077     1.01400
C2576       C  0.58923913  0.49904127  0.02095680     1.00100
C2577       C  0.93516074  0.88609718  0.47470283     0.99500
C2578       C  0.88854129  0.52048937  0.04531947     1.01500
C2579       C  0.53132957  0.59579515  0.49008081     1.00400
C2580       C  0.57566975  0.96379914  0.42185446     0.99300
C2581       C  0.53794920  0.90021741  0.01401415     0.99300
C2582       C  0.98846771  0.53864288  0.08921497     1.02000
H2583       H  0.55222295  0.96059862  0.48539938     0.29300
O2584       O  0.53166701  0.97022217  0.48532605    -1.05900
H2585       H  0.95102133  0.99693722  0.05641221     0.31400
O2586       O  0.96023966  0.99529317  0.03549787    -1.08500
C2587       C  0.71314776  0.54848741  0.11798691     0.85600
C2588       C  0.69365124  0.53752596  0.09113792    -0.54700
C2589       C  0.70568098  0.51290367  0.07542983     0.08500
C2590       C  0.73645752  0.00016382  0.08964581     0.19400
C2591       C  0.71572729  0.51823296  0.13911486    -0.55400
C2592       C  0.72779945  0.99282683  0.12474263     0.08600
C2593       C  0.74676498  0.55441346  0.10442145    -0.54900
C2594       C  0.75938445  0.52954906  0.08917295     0.09200
H2595       H  0.67078598  0.54754465  0.08585795     0.13700
H2596       H  0.74657838  0.97996448  0.07689398    -0.00600
H2597       H  0.70625324  0.51574167  0.16292238     0.14000
H2598       H  0.76006754  0.57609852  0.10803767     0.13800
O2599       O  0.64603264  0.70270439  0.26772737    -0.81100
O2600       O  0.71925766  0.78455814  0.12148946    -0.82600
O2601       O  0.62844208  0.77493936  0.19492426    -0.79600
O2602       O  0.67430293  0.68914916  0.16935809    -0.78000
O2603       O  0.72203906  0.66702820  0.18041307    -0.79800
O2604       O  0.64070068  0.81733869  0.22460491    -0.80700
O2605       O  0.67511305  0.75493376  0.13504691    -0.82100
O2606       O  0.63441641  0.71273774  0.21644223    -0.82300
Eu2607     Eu  0.67581513  0.74180708  0.19087091     2.39200
O2608       O  0.72812182  0.73728214  0.17259372    -0.89900
O2609       O  0.67225599  0.76062474  0.24206100    -0.93500
C2610       C  0.62778393  0.70083302  0.24367093     1.01200
C2611       C  0.69283404  0.77071600  0.11494624     1.01000
C2612       C  0.62146869  0.80067833  0.20889536     1.01000
C2613       C  0.69390993  0.66625080  0.16969246     0.98800
H2614       H  0.68484685  0.80654580  0.17416797     0.28600
O2615       O  0.69672118  0.79315945  0.18809682    -1.02200
H2616       H  0.69273060  0.68732359  0.22721146     0.28600
O2617       O  0.70280843  0.70792740  0.22556115    -1.04800
O2618       O  0.80375797  0.81088124  0.17279496    -0.82000
O2619       O  0.72991861  0.73660872  0.32530805    -0.81600
O2620       O  0.70570249  0.85873780  0.20487591    -0.80000
O2621       O  0.78124039  0.70708566  0.15209674    -0.83300
O2622       O  0.74844775  0.65810091  0.24710303    -0.81200
O2623       O  0.66765327  0.80859228  0.29415653    -0.79800
O2624       O  0.77350975  0.83230054  0.27810111    -0.81400
O2625       O  0.82449871  0.73885981  0.25127750    -0.83300
O2626       O  0.72308892  0.84758265  0.26990196    -0.80000
O2627       O  0.81080757  0.69760361  0.22048744    -0.82700
O2628       O  0.73865746  0.84480043  0.16401490    -0.78400
O2629       O  0.66757307  0.75704327  0.31212613    -0.78500
O2630       O  0.71516235  0.67268118  0.28719106    -0.78100
O2631       O  0.78035213  0.75834496  0.13325533    -0.81600
O2632       O  0.81774989  0.80452106  0.22419704    -0.81000
O2633       O  0.77518291  0.76566415  0.31338107    -0.79400
Eu2634     Eu  0.74986864  0.78863932  0.17044003     2.39800
Eu2635     Eu  0.70031943  0.72749141  0.27626366     2.39600
Eu2636     Eu  0.69500061  0.81120579  0.24003953     2.38400
Eu2637     Eu  0.75560423  0.70388346  0.20726433     2.39900
Eu2638     Eu  0.77754497  0.77650100  0.25615127     2.39800
O2639       O  0.75414301  0.72503502  0.25834748    -0.93800
O2640       O  0.74824606  0.80856068  0.22166857    -0.92700
C2641       C  0.82315140  0.81331347  0.19537054     1.01400
C2642       C  0.75538392  0.75162024  0.33315179     1.00100
C2643       C  0.72222809  0.86506919  0.17921769     0.99500
C2644       C  0.78746520  0.72916497  0.13061848     1.01500
C2645       C  0.73294604  0.65223154  0.27369836     1.00400
C2646       C  0.66087904  0.78629036  0.31514419     0.99300
C2647       C  0.75052683  0.85260316  0.28013283     0.99300
C2648       C  0.83111357  0.71309936  0.23617241     1.02000
H2649       H  0.72328730  0.78766015  0.29332240     0.29300
O2650       O  0.72400801  0.77825714  0.27297384    -1.05900
H2651       H  0.79887931  0.75373600  0.19696447     0.31400
O2652       O  0.77745993  0.75538141  0.20530098    -1.08500
C2653       C  0.59497916  0.72156741  0.47915900     0.85600
C2654       C  0.62140873  0.72464335  0.99511971    -0.54700
C2655       C  0.63726505  0.75304011  0.99429225     0.08500
C2656       C  0.62501254  0.77609423  0.47361733     0.19400
C2657       C  0.57715675  0.74953268  0.49355992    -0.55400
C2658       C  0.59191780  0.77823912  0.48947284     0.08600
C2659       C  0.60267422  0.73274343  0.44488601    -0.54900
C2660       C  0.61904727  0.76092581  0.44168021     0.09200
H2661       H  0.62694545  0.70579933  0.01181213     0.13700
H2662       H  0.63777796  0.79909037  0.47104294    -0.00600
H2663       H  0.55592877  0.74746253  0.50807627     0.14000
H2664       H  0.59581918  0.71929414  0.42479577     0.13800
C2665       C  0.96600353  0.88561443  0.26362388     0.85600
C2666       C  0.99740019  0.86872123  0.25896515    -0.54700
C2667       C  0.00045782  0.85415710  0.23115430     0.08500
C2668       C  0.97179244  0.85709699  0.21034287     0.19400
C2669       C  0.96247182  0.90739204  0.23428600    -0.55400
C2670       C  0.96574863  0.89254589  0.20619254     0.08600
C2671       C  0.94073327  0.85957642  0.25910747    -0.54900
C2672       C  0.94304471  0.84560775  0.23051508     0.09200
H2673       H  0.51603752  0.86851026  0.27616824     0.13700
H2674       H  0.97504761  0.84424442  0.18813784    -0.00600
H2675       H  0.95454609  0.93149607  0.23620139     0.14000
H2676       H  0.91900214  0.85708651  0.27317409     0.13800
C2677       C  0.86703948  0.70640474  0.45479995     0.85600
C2678       C  0.83796378  0.71244487  0.43545734    -0.54700
C2679       C  0.81966264  0.73659476  0.44520800     0.08500
C2680       C  0.83315057  0.75396141  0.47368517     0.19400
C2681       C  0.88475849  0.73860445  0.45252239    -0.55400
C2682       C  0.86775830  0.76393513  0.46324463     0.08600
C2683       C  0.85476983  0.70299129  0.48882859    -0.54900
C2684       C  0.83753866  0.72750232  0.49919594     0.09200
H2685       H  0.83317896  0.70052434  0.41387959     0.13700
H2686       H  0.81761844  0.77332516  0.48101512    -0.00600
H2687       H  0.90905705  0.74078740  0.44373158     0.14000
H2688       H  0.86070404  0.68301751  0.00835616     0.13800
C2689       C  0.73584523  0.52823276  0.34532492     0.85600
C2690       C  0.75432338  0.52939354  0.37572859    -0.54700
C2691       C  0.75497299  0.00212491  0.39249009     0.08500
C2692       C  0.73507603  0.97526862  0.37843186     0.19400
C2693       C  0.74983780  0.99958878  0.32774845    -0.55400
C2694       C  0.74972949  0.97190685  0.34526252     0.08600
C2695       C  0.70255327  0.51625094  0.35611968    -0.54900
C2696       C  0.70140383  0.98865422  0.37341892     0.09200
H2697       H  0.77019037  0.54906488  0.38029066     0.13700
H2698       H  0.73548852  0.95264896  0.39201715    -0.00600
H2699       H  0.75708150  0.99944879  0.30320436     0.14000
H2700       H  0.68145910  0.52915167  0.35019347     0.13800
C2701       C  0.60638124  0.77678561  0.38588326    -0.10100
C2702       C  0.62854851  0.77561417  0.40997840     0.06100
C2703       C  0.65967576  0.78697244  0.40250296    -0.03800
C2704       C  0.66886307  0.79491427  0.37122596    -0.08300
C2705       C  0.64741511  0.79329329  0.34681470     0.05200
C2706       C  0.61546986  0.78630667  0.35484981    -0.03300
Br2707     Br  0.58379874  0.79014699  0.32390313    -0.03000
H2708       H  0.58195207  0.76985742  0.39110333     0.09100
H2709       H  0.69365814  0.79997243  0.36555636     0.07200
Br2710     Br  0.69212549  0.78937988  0.43266856    -0.03400
C2711       C  0.63616753  0.77452905  0.04808211    -0.10100
C2712       C  0.65415210  0.76203548  0.02318976     0.06100
C2713       C  0.68613850  0.75474509  0.02830651    -0.03800
C2714       C  0.69967014  0.76119702  0.05729500    -0.08300
C2715       C  0.68109728  0.77232837  0.08246516     0.05200
C2716       C  0.64911290  0.77931019  0.07739784    -0.03300
Br2717     Br  0.62152067  0.79435232  0.11026935    -0.03000
H2718       H  0.61123998  0.77886341  0.04544948     0.09100
H2719       H  0.72411707  0.75525727  0.06089966     0.07200
Br2720     Br  0.71122053  0.73239139  0.99832776    -0.03400
C2721       C  0.79368143  0.77474332  0.40916908    -0.10100
C2722       C  0.79247844  0.74566477  0.42564836     0.06100
C2723       C  0.77166164  0.72185958  0.41544002    -0.03800
C2724       C  0.75771244  0.72495423  0.38613534    -0.08300
C2725       C  0.76316999  0.75214687  0.36709858     0.05200
C2726       C  0.77859979  0.77830232  0.38037967    -0.03300
Br2727     Br  0.77933250  0.81937797  0.36061622    -0.03000
H2728       H  0.80849134  0.79379609  0.41722041     0.09100
H2729       H  0.74448891  0.70513840  0.37735435     0.07200
Br2730     Br  0.76475346  0.68303086  0.43918649    -0.03400
C2731       C  0.83316288  0.73377845  0.09192113    -0.10100
C2732       C  0.80250333  0.72193665  0.09952317     0.06100
C2733       C  0.78386576  0.71151928  0.07481467    -0.03800
C2734       C  0.79501927  0.71479899  0.04330759    -0.08300
C2735       C  0.82522319  0.72770963  0.03569135     0.05200
C2736       C  0.84499336  0.73543277  0.06062267    -0.03300
Br2737     Br  0.88866863  0.74751943  0.05322975    -0.03000
H2738       H  0.84784442  0.74223268  0.11040990     0.09100
H2739       H  0.78021469  0.70681692  0.02471261     0.07200
Br2740     Br  0.74262305  0.69334158  0.08327134    -0.03400
C2741       C  0.77683907  0.89048461  0.31680720    -0.10100
C2742       C  0.75330540  0.88415449  0.29518965     0.06100
C2743       C  0.72964103  0.90763092  0.29064167    -0.03800
C2744       C  0.72995715  0.93520388  0.30738310    -0.08300
C2745       C  0.75253982  0.94101892  0.32952598     0.05200
C2746       C  0.77597056  0.91799664  0.33478665    -0.03300
Br2747     Br  0.80625667  0.92113209  0.36683315    -0.03000
H2748       H  0.79521340  0.87345755  0.32071925     0.09100
H2749       H  0.71162709  0.95240824  0.30342745     0.07200
Br2750     Br  0.69454007  0.90567526  0.26280149    -0.03400
C2751       C  0.74831059  0.56401029  0.29498594    -0.10100
C2752       C  0.73591256  0.56056515  0.32633181     0.06100
C2753       C  0.72366331  0.58833500  0.33979410    -0.03800
C2754       C  0.72300927  0.61708353  0.32225679    -0.08300
C2755       C  0.73507140  0.62031108  0.29091403     0.05200
C2756       C  0.74823602  0.59298837  0.27765879    -0.03300
Br2757     Br  0.76677173  0.59289109  0.23588792    -0.03000
H2758       H  0.75869382  0.54449510  0.28308557     0.09100
H2759       H  0.71318608  0.63737203  0.33376536     0.07200
Br2760     Br  0.70809312  0.58936587  0.38269892    -0.03400
C2761       C  0.87902027  0.80333499  0.18742720    -0.10100
C2762       C  0.85488381  0.82576614  0.18912941     0.06100
C2763       C  0.86160960  0.85611019  0.19956854    -0.03800
C2764       C  0.89084409  0.86231921  0.21220694    -0.08300
C2765       C  0.91355388  0.83848145  0.21454161     0.05200
C2766       C  0.90841249  0.80952827  0.20025167    -0.03300
Br2767     Br  0.93923557  0.77677328  0.20132827    -0.03000
H2768       H  0.87370643  0.77966087  0.17986037     0.09100
H2769       H  0.89529791  0.88538754  0.22167216     0.07200
Br2770     Br  0.82950361  0.88759835  0.20250280    -0.03400
C2771       C  0.56670756  0.79551700  0.22959207    -0.10100
C2772       C  0.58870394  0.81122518  0.20907482     0.06100
C2773       C  0.58059135  0.83984006  0.19407535    -0.03800
C2774       C  0.55082269  0.85268943  0.20018719    -0.08300
C2775       C  0.52947488  0.83773941  0.22186893     0.05200
C2776       C  0.53731206  0.80879859  0.23636971    -0.03900
Br2777     Br  0.50922998  0.78756472  0.26666297    -0.03000
H2778       H  0.57316277  0.77387930  0.24182981     0.09100
H2779       H  0.54492466  0.87515447  0.18923565     0.07200
Br2780     Br  0.61009891  0.86278343  0.16649359    -0.03400
C2781       C  0.71919613  0.93454244  0.12112509    -0.10100
C2782       C  0.72827451  0.96015032  0.13930993     0.06100
C2783       C  0.73620078  0.95384961  0.17094788    -0.03800
C2784       C  0.73327931  0.92295505  0.18385861    -0.08300
C2785       C  0.72286751  0.89780833  0.16582807     0.05200
C2786       C  0.71616352  0.90386080  0.13405550    -0.03300
Br2787     Br  0.70121849  0.87123909  0.10752529    -0.03000
H2788       H  0.71371305  0.93828464  0.09671813     0.09100
H2789       H  0.74021836  0.91837114  0.20778700     0.07200
Br2790     Br  0.75398134  0.98546972  0.19694360    -0.03400
C2791       C  0.69116738  0.58023356  0.16357708    -0.10100
C2792       C  0.69920430  0.57825516  0.13137433     0.06100
C2793       C  0.69529733  0.60559253  0.11158136    -0.03800
C2794       C  0.68728837  0.63413094  0.12459233    -0.08300
C2795       C  0.68447710  0.63648754  0.15691411     0.05200
C2796       C  0.68397488  0.60923590  0.17635236    -0.03300
Br2797     Br  0.67671934  0.61146633  0.22092887    -0.03000
H2798       H  0.69237290  0.56022428  0.17961211     0.09100
H2799       H  0.68707347  0.65530674  0.10972314     0.07200
Br2800     Br  0.70385703  0.60788304  0.06701439    -0.03400
C2801       C  0.95706542  0.94951327  0.13655011    -0.10100
C2802       C  0.94460025  0.92932816  0.11423604     0.06100
C2803       C  0.93532088  0.89858364  0.12329149    -0.03800
C2804       C  0.94141195  0.88751020  0.15365732    -0.08300
C2805       C  0.95687074  0.90671181  0.17536244     0.05200
C2806       C  0.96405610  0.93843755  0.16654899    -0.03300
Br2807     Br  0.48867691  0.96671426  0.19136258    -0.03000
H2808       H  0.96464023  0.97330619  0.12941108     0.09100
H2809       H  0.93496506  0.86328766  0.15953185     0.07200
Br2810     Br  0.91724537  0.87027294  0.09413244    -0.03400
C2811       C  0.94233555  0.89633994  0.31854388    -0.10100
C2812       C  0.96476463  0.90389924  0.29406764     0.06100
C2813       C  0.98706655  0.92868566  0.29880028    -0.03800
C2814       C  0.98623509  0.94507946  0.32680225    -0.08300
C2815       C  0.96398454  0.93705922  0.35073835     0.05200
C2816       C  0.94190747  0.91268045  0.34653704    -0.03300
Br2817     Br  0.91143636  0.90021116  0.37914147    -0.03000
H2818       H  0.92546468  0.87720619  0.31705041     0.09100
H2819       H  0.50472143  0.96312219  0.33066794     0.07200
Br2820     Br  0.52166859  0.93986684  0.26939168    -0.03400
C2821       C  0.63253838  0.95107571  0.42461070    -0.10100
C2822       C  0.60657878  0.95744300  0.40585548     0.06100
C2823       C  0.61271094  0.96867806  0.37487436    -0.03800
C2824       C  0.64381776  0.97640497  0.36427739    -0.08300
C2825       C  0.66990070  0.97325346  0.38406533     0.05200
C2826       C  0.66386375  0.95804891  0.41392216    -0.03300
Br2827     Br  0.69533082  0.44594436  0.44242427    -0.03000
H2828       H  0.62774599  0.44185707  0.44796662     0.09100
H2829       H  0.64736209  0.98617137  0.34064132     0.07200
Br2830     Br  0.57865661  0.97610753  0.34711278    -0.03400
C2831       C  0.81604713  0.98344258  0.45469670    -0.10100
C2832       C  0.84342967  0.98132217  0.43540608     0.06100
C2833       C  0.84085359  0.98515305  0.40245661    -0.03800
C2834       C  0.81193558  0.99232839  0.38980541    -0.08300
C2835       C  0.78460068  0.99478511  0.40880114     0.05200
C2836       C  0.78679176  0.99047989  0.44160699    -0.03300
Br2837     Br  0.75198516  0.49539659  0.47027974    -0.03000
H2838       H  0.81774943  0.98168994  0.48001592     0.09100
H2839       H  0.81072119  0.99565329  0.36455236     0.07200
Br2840     Br  0.87559702  0.98084921  0.37255162    -0.03400
C2841       C  0.64629746  0.51410714  0.01454903    -0.10100
C2842       C  0.62260435  0.49570308  0.03043580     0.06100
C2843       C  0.63143278  0.47554511  0.05590588    -0.03800
C2844       C  0.66252658  0.47629454  0.06600789    -0.08300
C2845       C  0.68474104  0.49813142  0.05295247     0.05200
C2846       C  0.67678766  0.51602369  0.02606817    -0.03300
Br2847     Br  0.70387772  0.54942971  0.00944832    -0.03000
H2848       H  0.63929421  0.52695257  0.49144991     0.09100
H2849       H  0.66758168  0.46365359  0.08763146     0.07200
Br2850     Br  0.60250808  0.44933414  0.08158623    -0.03400
C2851       C  0.83971912  0.55186841  0.05028612    -0.10100
C2852       C  0.85844185  0.52752660  0.06195332     0.06100
C2853       C  0.84460232  0.00540544  0.08444525    -0.03800
C2854       C  0.81233761  0.00626436  0.09267711    -0.08300
C2855       C  0.79340809  0.52957177  0.07923013     0.05200
C2856       C  0.80750173  0.55327096  0.05895959    -0.03300
Br2857     Br  0.78389462  0.58674654  0.04029490    -0.03000
H2858       H  0.84965287  0.56867035  0.03286067     0.09100
H2859       H  0.80237031  0.98885319  0.10948048     0.07200
Br2860     Br  0.86973874  0.97415190  0.10507429    -0.03400
C2861       C  0.92844131  0.64150270  0.45868829    -0.10100
C2862       C  0.91205396  0.61573488  0.44669743     0.06100
C2863       C  0.88309521  0.62075662  0.43234436    -0.03800
C2864       C  0.87027188  0.65110580  0.43208803    -0.08300
C2865       C  0.88561245  0.67689157  0.44645235     0.05200
C2866       C  0.91516996  0.67119850  0.46004995    -0.03300
Br2867     Br  0.94110616  0.70054431  0.98941232    -0.03000
H2868       H  0.95085932  0.63782497  0.46981481     0.09100
H2869       H  0.84673994  0.65309319  0.42326281     0.07200
Br2870     Br  0.85813300  0.58661488  0.41677292    -0.03400
C2871       C  0.89339618  0.84613520  0.49207940    -0.10100
C2872       C  0.91871495  0.85463327  0.47104264     0.06100
C2873       C  0.92588061  0.83365965  0.44663638    -0.03800
C2874       C  0.90805748  0.80552983  0.44399635    -0.08300
C2875       C  0.88309520  0.79653451  0.46553809     0.05200
C2876       C  0.87571148  0.81801260  0.48966737    -0.03300
Br2877     Br  0.84288102  0.81181692  0.52153400    -0.03000
H2878       H  0.88715744  0.86156078  0.51109211     0.09100
H2879       H  0.91399981  0.79056014  0.42458252     0.07200
Br2880     Br  0.95934408  0.84150951  0.41563185    -0.03400
C2881       C  0.57660670  0.63208773  0.47328859    -0.10100
C2882       C  0.54695773  0.62793464  0.48936236     0.06100
C2883       C  0.53313866  0.65475948  0.50257192    -0.03800
C2884       C  0.54819886  0.68444437  0.49869312    -0.08300
C2885       C  0.57794066  0.68883969  0.48249024     0.05200
C2886       C  0.59195465  0.66161040  0.46988147    -0.03300
Br2887     Br  0.63207044  0.66259370  0.44710340    -0.03000
H2888       H  0.58827658  0.61215447  0.46287387     0.09100
H2889       H  0.53567347  0.70357782  0.50901552     0.07200
Br2890     Br  0.99445022  0.65329425  0.52774681    -0.03400
C2891       C  0.59448507  0.83395391  0.00949325    -0.10100
C2892       C  0.57785413  0.80801354  0.50115776     0.06100
C2893       C  0.54483315  0.81327257  0.50105175    -0.03800
C2894       C  0.53285276  0.84167332  0.51161484    -0.08300
C2895       C  0.55041570  0.86860518  0.02022012     0.05200
C2896       C  0.58314607  0.86326030  0.01864867    -0.03300
Br2897     Br  0.61359831  0.89650253  0.02289387    -0.03000
H2898       H  0.61977912  0.83052245  0.00918269     0.09100
H2899       H  0.50766884  0.84568432  0.50976779     0.07200
Br2900     Br  0.51476079  0.78639618  0.48102145    -0.03400
C2901       C  0.95785152  0.58736769  0.15861150    -0.10100
C2902       C  0.98276329  0.58578389  0.17934037     0.06100
C2903       C  0.50907502  0.56686290  0.17076822    -0.03800
C2904       C  0.51032175  0.55093761  0.14209222    -0.08300
C2905       C  0.98555030  0.55275082  0.12132297     0.05200
C2906       C  0.95864400  0.57079270  0.13042534    -0.03300
Br2907     Br  0.92052052  0.57209351  0.10706945    -0.03000
H2908       H  0.93694251  0.60054061  0.16501878     0.09100
H2909       H  0.53111378  0.53749973  0.13594877     0.07200
Br2910     Br  0.54475540  0.56223643  0.19705421    -0.03400
C2911       C  0.47825956  0.59994156  0.32654237    -0.10100
C2912       C  0.98518692  0.58228840  0.29990599     0.06100
C2913       C  0.00638805  0.55654837  0.30354506    -0.03800
C2914       C  0.01802511  0.54866382  0.33312604    -0.08300
C2915       C  0.01030612  0.56620626  0.35944027     0.05200
C2916       C  0.49068343  0.59239144  0.35553614    -0.03300
Br2917     Br  0.47757737  0.61677633  0.39082899    -0.03000
H2918       H  0.46444399  0.62115345  0.32506561     0.09100
H2919       H  0.03146048  0.52728488  0.33606476     0.07200
Br2920     Br  0.02115362  0.52974752  0.27092474    -0.03400
C2921       C  0.90515571  0.66678396  0.21099451    -0.10100
C2922       C  0.92121121  0.66338336  0.23917206     0.06100
C2923       C  0.90961705  0.68068977  0.26525860    -0.03800
C2924       C  0.88130095  0.69793971  0.26363154    -0.08300
C2925       C  0.86393617  0.69929633  0.23612334     0.05200
C2926       C  0.87720304  0.68454233  0.20918508    -0.03300
Br2927     Br  0.85889496  0.68852869  0.16859656    -0.03000
H2928       H  0.91382757  0.65476097  0.19040107     0.09100
H2929       H  0.87239637  0.70963657  0.28432959     0.07200
Br2930     Br  0.93211347  0.68329468  0.30356153    -0.03400
C2931       C  0.54123755  0.68200808  0.26218692    -0.10100
C2932       C  0.53289939  0.66541325  0.23519936     0.06100
C2933       C  0.55631037  0.66079051  0.21186046    -0.03800
C2934       C  0.58762780  0.66954392  0.21704812    -0.08300
C2935       C  0.59642022  0.68468091  0.24471323     0.05200
C2936       C  0.57269127  0.69094126  0.26736403    -0.03300
Br2937     Br  0.58201709  0.71020127  0.30610425    -0.03000
H2938       H  0.52357247  0.68523549  0.28079444     0.09100
H2939       H  0.60527309  0.66541341  0.19863366     0.07200
Br2940     Br  0.54696541  0.64270274  0.17248438    -0.03400
C2941       C  0.98548273  0.59879369  0.76937811     0.85600
C2942       C  0.95525636  0.61874890  0.76719798    -0.54700
C2943       C  0.95435219  0.63884930  0.74150038     0.08500
C2944       C  0.48386363  0.63553649  0.71856607     0.19400
C2945       C  0.98588671  0.58031346  0.73886627    -0.55400
C2946       C  0.98612133  0.59892295  0.71199429     0.08600
C2947       C  0.51262574  0.62201450  0.76514691    -0.54900
C2948       C  0.51221368  0.64192596  0.74002466     0.09200
H2949       H  0.93608793  0.61724264  0.78479386     0.13700
H2950       H  0.48357803  0.65122782  0.69728483    -0.00600
H2951       H  0.98527677  0.55476462  0.73813848     0.14000
H2952       H  0.53177839  0.62244728  0.78169510     0.13800
O2953       O  0.53342551  0.54929705  0.91050573    -0.81100
O2954       O  0.88046493  0.96869016  0.97266108    -0.82600
O2955       O  0.95534856  0.97753804  0.88709903    -0.79600
O2956       O  0.93046405  0.56549033  0.93261611    -0.78000
O2957       O  0.93594987  0.58346480  0.98232460    -0.79800
O2958       O  0.98523056  0.93491049  0.90066878    -0.80700
O2959       O  0.89642470  0.99984720  0.93026740    -0.82100
O2960       O  0.98320554  0.54090798  0.89464703    -0.82300
Eu2961     Eu  0.95220932  0.51168423  0.93315807     2.39200
O2962       O  0.93068885  0.51397145  0.98425210    -0.89900
O2963       O  0.00341174  0.99132963  0.93271105    -0.93500
C2964       C  0.01132651  0.55221474  0.89093523     1.01200
C2965       C  0.87544793  0.98355043  0.94627659     1.01000
C2966       C  0.96898782  0.95118140  0.88123005     1.01000
C2967       C  0.92797415  0.58669862  0.95371748     0.98800
H2968       H  0.93502854  0.94713390  0.94168333     0.28600
O2969       O  0.94854978  0.95999685  0.95417858    -1.02200
H2970       H  0.98706859  0.56449456  0.95261618     0.28600
O2971       O  0.98530394  0.54364242  0.96230151    -1.04800
O2972       O  0.92887849  0.93917623  0.56138083    -0.82000
O2973       O  0.58357380  0.51342791  0.99453544    -0.81600
O2974       O  0.96305891  0.89338771  0.96110595    -0.80000
O2975       O  0.91072793  0.54268508  0.53966645    -0.83300
O2976       O  0.00412435  0.59068111  0.50508679    -0.81200
O2977       O  0.55454424  0.94373406  0.92656448    -0.79800
O2978       O  0.53641265  0.91907215  0.53487035    -0.81400
O2979       O  0.50586947  0.51048549  0.58419170    -0.83300
O2980       O  0.52936434  0.90370124  0.98559235    -0.80000
O2981       O  0.97715551  0.55276940  0.56845083    -0.82700
O2982       O  0.92116165  0.90692566  0.99279042    -0.78400
O2983       O  0.57384418  0.99416539  0.93134684    -0.78500
O2984       O  0.54218634  0.57754132  0.97717635    -0.78100
O2985       O  0.89188138  0.99221941  0.53676799    -0.81600
O2986       O  0.98000806  0.94566912  0.57670310    -0.81000
O2987       O  0.56804440  0.98416870  0.53966479    -0.79400
Eu2988     Eu  0.92838075  0.96093865  0.50695278     2.39800
Eu2989     Eu  0.53597060  0.52281735  0.96320171     2.39600
Eu2990     Eu  0.00031864  0.94020070  0.95469746     2.38400
Eu2991     Eu  0.96492173  0.54544343  0.51391302     2.39900
Eu2992     Eu  0.51207097  0.97313423  0.53756622     2.39800
O2993       O  0.51640975  0.52447700  0.51445519    -0.93800
O2994       O  0.97949881  0.94269690  0.00681400    -0.92700
C2995       C  0.95082412  0.93782949  0.58177048     1.01400
C2996       C  0.58931673  0.49675078  0.51976482     1.00100
C2997       C  0.93623117  0.88693653  0.97586144     0.99500
C2998       C  0.88950098  0.52054818  0.54521539     1.01500
C2999       C  0.52649074  0.59901381  0.99132926     1.00400
C3000       C  0.57615097  0.96582499  0.92167873     0.99300
C3001       C  0.53957116  0.89839979  0.51298431     0.99300
C3002       C  0.99129309  0.53680883  0.58974973     1.02000
H3003       H  0.55265879  0.96235326  0.98604685     0.29300
O3004       O  0.53205427  0.97188188  0.98577235    -1.05900
H3005       H  0.95249905  0.99615421  0.55632367     0.31400
O3006       O  0.96150228  0.99433122  0.53534686    -1.08500
C3007       C  0.71388169  0.54513063  0.61533591     0.85600
C3008       C  0.69516003  0.53619094  0.58712000    -0.54700
C3009       C  0.70704929  0.51190773  0.57067236     0.08500
C3010       C  0.73695005  0.99752511  0.58535084     0.19400
C3011       C  0.71463571  0.51399993  0.63529096    -0.55400
C3012       C  0.72744750  0.98925014  0.62009743     0.08600
C3013       C  0.74807299  0.55030619  0.60318592    -0.54900
C3014       C  0.76011303  0.52581552  0.58705708     0.09200
H3015       H  0.67269963  0.54700447  0.58170748     0.13700
H3016       H  0.74669769  0.97745214  0.57212048    -0.00600
H3017       H  0.70504150  0.51110248  0.65905216     0.14000
H3018       H  0.76191512  0.57148101  0.60758584     0.13800
O3019       O  0.65318845  0.70071284  0.76622475    -0.81100
O3020       O  0.72484659  0.78351388  0.61984093    -0.82600
O3021       O  0.63388411  0.77322840  0.69205290    -0.79600
O3022       O  0.68090856  0.68626523  0.66884981    -0.78000
O3023       O  0.72848736  0.66382063  0.68005739    -0.79800
O3024       O  0.64608922  0.81517629  0.72222910    -0.80700
O3025       O  0.68048662  0.75434860  0.63372696    -0.82100
O3026       O  0.64019540  0.71254339  0.71567948    -0.82300
Eu3027     Eu  0.68172634  0.73978590  0.68907385     2.39200
O3028       O  0.73399294  0.73534628  0.67012884    -0.89900
O3029       O  0.67811398  0.75794243  0.74050010    -0.93500
C3030       C  0.63423607  0.69988139  0.74267090     1.01200
C3031       C  0.69810217  0.77021313  0.61362111     1.01000
C3032       C  0.62690544  0.79918048  0.70582001     1.01000
C3033       C  0.70021125  0.66304511  0.66964581     0.98800
H3034       H  0.69057759  0.80405039  0.67263402     0.28600
O3035       O  0.70265331  0.79081096  0.68651148    -1.02200
H3036       H  0.69960033  0.68594452  0.72543603     0.28600
O3037       O  0.70968724  0.70651882  0.72344127    -1.04800
O3038       O  0.80919510  0.81038726  0.67134980    -0.82000
O3039       O  0.73817000  0.73337487  0.82291202    -0.81600
O3040       O  0.71012432  0.85510517  0.70112144    -0.80000
O3041       O  0.78636246  0.70480761  0.64927553    -0.83300
O3042       O  0.75651281  0.65632420  0.74305747    -0.81200
O3043       O  0.67207583  0.80503822  0.79233218    -0.79800
O3044       O  0.77789403  0.83057455  0.77483337    -0.81400
O3045       O  0.83135323  0.73836041  0.74842230    -0.83300
O3046       O  0.72649764  0.84475569  0.76932699    -0.80000
O3047       O  0.81805820  0.69704116  0.71759980    -0.82700
O3048       O  0.74321462  0.84204609  0.66005493    -0.78400
O3049       O  0.67544725  0.75413941  0.81150958    -0.78500
O3050       O  0.72266808  0.67079720  0.78271924    -0.78100
O3051       O  0.78546179  0.75620315  0.63095250    -0.81600
O3052       O  0.82289238  0.80445024  0.72284415    -0.81000
O3053       O  0.78345897  0.76181162  0.80999680    -0.79400
Eu3054     Eu  0.75573796  0.78674038  0.66840237     2.39800
Eu3055     Eu  0.70741926  0.72547849  0.77426414     2.39600
Eu3056     Eu  0.70016591  0.80855983  0.73834304     2.38400
Eu3057     Eu  0.76234869  0.70236093  0.70455523     2.39900
Eu3058     Eu  0.78354507  0.77470955  0.75354735     2.39800
O3059       O  0.76093825  0.72311855  0.75574297    -0.93800
O3060       O  0.75344011  0.80648963  0.71966230    -0.92700
C3061       C  0.82820253  0.81362750  0.69417881     1.01400
C3062       C  0.76412234  0.74789906  0.83018989     1.00100
C3063       C  0.72610997  0.86176071  0.67514800     0.99500
C3064       C  0.79220956  0.72698878  0.62796635     1.01500
C3065       C  0.74051239  0.65048282  0.76921462     1.00400
C3066       C  0.66688146  0.78294102  0.81396625     0.99300
C3067       C  0.75453863  0.85037193  0.77765207     0.99300
C3068       C  0.83825951  0.71269293  0.73335062     1.02000
H3069       H  0.72974124  0.78546178  0.79171939     0.29300
O3070       O  0.73028287  0.77636743  0.77120980    -1.05900
H3071       H  0.80571953  0.75262735  0.69416382     0.31400
O3072       O  0.78428892  0.75382443  0.70259910    -1.08500
C3073       C  0.59083463  0.72393137  0.97660399     0.85600
C3074       C  0.62684128  0.72253275  0.49561658    -0.54700
C3075       C  0.64222649  0.75128178  0.49415745     0.08500
C3076       C  0.62184829  0.77793637  0.97228199     0.19400
C3077       C  0.57217619  0.75228867  0.98882850    -0.55400
C3078       C  0.58772287  0.78075331  0.98615871     0.08600
C3079       C  0.60059354  0.73460328  0.94262233    -0.54900
C3080       C  0.61762745  0.76237866  0.94002231     0.09200
H3081       H  0.63351818  0.70375426  0.51190443     0.13700
H3082       H  0.63547806  0.80048891  0.96995651    -0.00600
H3083       H  0.54907529  0.75018254  0.99999197     0.14000
H3084       H  0.59432384  0.72143519  0.92217214     0.13800
C3085       C  0.97242337  0.88701071  0.76249079     0.85600
C3086       C  0.00417251  0.87081716  0.75661756    -0.54700
C3087       C  0.00651811  0.85607411  0.72870216     0.08500
C3088       C  0.97687656  0.85882499  0.70890402     0.19400
C3089       C  0.96776247  0.90893955  0.73348109    -0.55400
C3090       C  0.97022254  0.89429829  0.70520670     0.08600
C3091       C  0.94728228  0.86068390  0.75837360    -0.54900
C3092       C  0.94860130  0.84700038  0.72971869     0.09200
H3093       H  0.52307996  0.87072318  0.77342059     0.13700
H3094       H  0.97958494  0.84617632  0.68653282    -0.00600
H3095       H  0.95938780  0.93283794  0.73584665     0.14000
H3096       H  0.92571857  0.85819216  0.77267401     0.13800
C3097       C  0.86982474  0.70671409  0.95944689     0.85600
C3098       C  0.84196626  0.71260173  0.93852452    -0.54700
C3099       C  0.82289055  0.73637116  0.94719730     0.08500
C3100       C  0.83468872  0.75400291  0.97639555     0.19400
C3101       C  0.88737162  0.73878106  0.95788613    -0.55400
C3102       C  0.86977811  0.76402924  0.96747663     0.08600
C3103       C  0.85593694  0.70316829  0.99294812    -0.54900
C3104       C  0.83783325  0.72756757  0.00243250     0.09200
H3105       H  0.83887244  0.70095222  0.91641487     0.13700
H3106       H  0.81887791  0.77349119  0.98287006    -0.00600
H3107       H  0.91185303  0.74112480  0.94977313     0.14000
H3108       H  0.85992098  0.68273257  0.50396930     0.13800
C3109       C  0.73678080  0.52703690  0.83917907     0.85600
C3110       C  0.75632290  0.52775279  0.86889889    -0.54700
C3111       C  0.75596146  0.00018711  0.88637386     0.08500
C3112       C  0.73460819  0.97398319  0.87294500     0.19400
C3113       C  0.74936285  0.99773552  0.82198814    -0.55400
C3114       C  0.74825364  0.97015715  0.83945817     0.08600
C3115       C  0.70309326  0.51660291  0.85069504    -0.54900
C3116       C  0.70133406  0.98863467  0.86847607     0.09200
H3117       H  0.77290024  0.54696522  0.87300507     0.13700
H3118       H  0.73394785  0.95146600  0.88681273    -0.00600
H3119       H  0.75719381  0.99747602  0.79763065     0.14000
H3120       H  0.68225799  0.53000868  0.84492213     0.13800
C3121       C  0.60864920  0.77899723  0.88336649    -0.10100
C3122       C  0.62956111  0.77591691  0.90847539     0.06100
C3123       C  0.66203567  0.78242179  0.90181035    -0.03800
C3124       C  0.67311326  0.78922533  0.87083437    -0.08300
C3125       C  0.65261943  0.78981871  0.84549605     0.05200
C3126       C  0.61989990  0.78590917  0.85225674    -0.03300
Br3127     Br  0.59021455  0.78756606  0.81918521    -0.03000
H3128       H  0.58355159  0.77459298  0.88771724     0.09100
H3129       H  0.69845006  0.79120228  0.86610965     0.07200
Br3130     Br  0.69344000  0.77776954  0.93275088    -0.03400
C3131       C  0.64053985  0.77145505  0.54811952    -0.10100
C3132       C  0.65904437  0.76081862  0.52272343     0.06100
C3133       C  0.69178022  0.75671738  0.52665163    -0.03800
C3134       C  0.70516010  0.76291568  0.55574640    -0.08300
C3135       C  0.68607170  0.77214851  0.58142414     0.05200
C3136       C  0.65362157  0.77732108  0.57698747    -0.03300
Br3137     Br  0.62545993  0.79151967  0.60986564    -0.03000
H3138       H  0.61526671  0.77388441  0.54616680     0.09100
H3139       H  0.73003290  0.75838811  0.55891086     0.07200
Br3140     Br  0.71857886  0.74013317  0.49423146    -0.03400
C3141       C  0.80261324  0.77236510  0.90617048    -0.10100
C3142       C  0.79771377  0.74517035  0.92509745     0.06100
C3143       C  0.77676248  0.72146154  0.91478525    -0.03800
C3144       C  0.76449273  0.72344180  0.88456577    -0.08300
C3145       C  0.77261548  0.74894405  0.86400862     0.05200
C3146       C  0.79024669  0.77445208  0.87603124    -0.03300
Br3147     Br  0.79920061  0.81267643  0.85255225    -0.03000
H3148       H  0.81862730  0.79075843  0.91355656     0.09100
H3149       H  0.75033626  0.70393816  0.87646654     0.07200
Br3150     Br  0.76780388  0.68374103  0.93971317    -0.03400
C3151       C  0.83645898  0.73255256  0.58835617    -0.10100
C3152       C  0.80635807  0.71985904  0.59673036     0.06100
C3153       C  0.78706142  0.70920434  0.57266607    -0.03800
C3154       C  0.79689181  0.71331470  0.54098961    -0.08300
C3155       C  0.82634913  0.72730759  0.53262661     0.05200
C3156       C  0.84697841  0.73518325  0.55677552    -0.03300
Br3157     Br  0.88993112  0.74901469  0.54797553    -0.03000
H3158       H  0.85157201  0.74114106  0.60644564     0.09100
H3159       H  0.78166107  0.70514612  0.52280748     0.07200
Br3160     Br  0.74661529  0.68982285  0.58195224    -0.03400
C3161       C  0.77624441  0.88763663  0.81695730    -0.10100
C3162       C  0.75767809  0.88243449  0.79088802     0.06100
C3163       C  0.73695292  0.90701845  0.78134329    -0.03800
C3164       C  0.73632235  0.93525296  0.79679400    -0.08300
C3165       C  0.75301930  0.93951535  0.82400317     0.05200
C3166       C  0.77245753  0.91486192  0.83480151    -0.03300
Br3167     Br  0.79199383  0.91483918  0.87458711    -0.03000
H3168       H  0.79196638  0.86963589  0.82488345     0.09100
H3169       H  0.72041755  0.95342869  0.78875427     0.07200
Br3170     Br  0.70467472  0.90435769  0.75062655    -0.03400
C3171       C  0.75173871  0.56198811  0.78919312    -0.10100
C3172       C  0.73846066  0.55900220  0.82024569     0.06100
C3173       C  0.72759780  0.58707794  0.83397961    -0.03800
C3174       C  0.72924510  0.61592594  0.81704156    -0.08300
C3175       C  0.74173517  0.61869440  0.78592180     0.05200
C3176       C  0.75344815  0.59103255  0.77222289    -0.03300
Br3177     Br  0.77157993  0.59040795  0.73025432    -0.03000
H3178       H  0.76132806  0.54214253  0.77721865     0.09100
H3179       H  0.72049272  0.63656931  0.82875150     0.07200
Br3180     Br  0.71042654  0.58842010  0.87630204    -0.03400
C3181       C  0.88419681  0.80603237  0.68528271    -0.10100
C3182       C  0.85946477  0.82750746  0.68865392     0.06100
C3183       C  0.86524383  0.85686902  0.70182934    -0.03800
C3184       C  0.89445598  0.86292284  0.71485276    -0.08300
C3185       C  0.91822544  0.83985449  0.71480192     0.05200
C3186       C  0.91339983  0.81186742  0.69860595    -0.03300
Br3187     Br  0.94423884  0.77930457  0.69747373    -0.03000
H3188       H  0.87950382  0.78293605  0.67593916     0.09100
H3189       H  0.89825165  0.88530820  0.72595652     0.07200
Br3190     Br  0.83181497  0.88680283  0.70689176    -0.03400
C3191       C  0.56955864  0.79343307  0.71911945    -0.10100
C3192       C  0.59441200  0.81134317  0.70460804     0.06100
C3193       C  0.58908707  0.84304603  0.69551145    -0.03800
C3194       C  0.55975690  0.85676825  0.70238263    -0.08300
C3195       C  0.53554888  0.83937523  0.71859989     0.05200
C3196       C  0.54042302  0.80731376  0.72647278    -0.03900
Br3197     Br  0.50915480  0.78238538  0.74988962    -0.03000
H3198       H  0.57358176  0.76927798  0.72690173     0.09100
H3199       H  0.55623710  0.88140964  0.69610862     0.07200
Br3200     Br  0.62173150  0.86857422  0.67450710    -0.03400
C3201       C  0.71863815  0.93075696  0.61692820    -0.10100
C3202       C  0.72866148  0.95654249  0.63442748     0.06100
C3203       C  0.73881079  0.95042310  0.66535815    -0.03800
C3204       C  0.73790661  0.91947628  0.67806052    -0.08300
C3205       C  0.72549285  0.89431369  0.66140294     0.05200
C3206       C  0.71611109  0.90016765  0.63035154    -0.03300
Br3207     Br  0.69863237  0.86736305  0.60559529    -0.03000
H3208       H  0.71208513  0.93429184  0.59280500     0.09100
H3209       H  0.74790758  0.91493451  0.70075337     0.07200
Br3210     Br  0.75648373  0.98251363  0.69086014    -0.03400
C3211       C  0.69240181  0.57650108  0.66169589    -0.10100
C3212       C  0.70098808  0.57496451  0.62951920     0.06100
C3213       C  0.69970569  0.60311214  0.61050671    -0.03800
C3214       C  0.69348110  0.63168917  0.62417999    -0.08300
C3215       C  0.69045272  0.63343935  0.65651805     0.05200
C3216       C  0.68769961  0.60573686  0.67532676    -0.03300
Br3217     Br  0.67966676  0.60730207  0.71984771    -0.03000
H3218       H  0.69151555  0.55580071  0.67701025     0.09100
H3219       H  0.69467670  0.65318209  0.60981354     0.07200
Br3220     Br  0.71038044  0.60624239  0.56629548    -0.03400
C3221       C  0.95531591  0.95073427  0.63636524    -0.10100
C3222       C  0.94337553  0.92965577  0.61463046     0.06100
C3223       C  0.93523998  0.89882105  0.62431649    -0.03800
C3224       C  0.94297909  0.88834605  0.65436255    -0.08300
C3225       C  0.95892273  0.90820537  0.67512735     0.05200
C3226       C  0.96415339  0.94022943  0.66599859    -0.03300
Br3227     Br  0.48816877  0.96939732  0.68945096    -0.03000
H3228       H  0.96163566  0.97472678  0.62872141     0.09100
H3229       H  0.93773844  0.86395738  0.66044969     0.07200
Br3230     Br  0.91692034  0.86945752  0.59632002    -0.03400
C3231       C  0.94911083  0.89516434  0.81811361    -0.10100
C3232       C  0.97063430  0.90474934  0.79342015     0.06100
C3233       C  0.99067682  0.93132459  0.79829208    -0.03800
C3234       C  0.98804634  0.94777647  0.82626220    -0.08300
C3235       C  0.96633024  0.93799957  0.85012167     0.05200
C3236       C  0.94678966  0.91157511  0.84595270    -0.03300
Br3237     Br  0.91717936  0.89628624  0.87824064    -0.03000
H3238       H  0.93449027  0.87425177  0.81710745     0.09100
H3239       H  0.50455407  0.96697975  0.83011830     0.07200
Br3240     Br  0.52410576  0.94467592  0.76914103    -0.03400
C3241       C  0.63368385  0.95669941  0.92428769    -0.10100
C3242       C  0.60716425  0.95956718  0.90551071     0.06100
C3243       C  0.61245448  0.96699740  0.87332590    -0.03800
C3244       C  0.64326172  0.97489354  0.86137556    -0.08300
C3245       C  0.66980114  0.97460712  0.88084859     0.05200
C3246       C  0.66457993  0.96323005  0.91225735    -0.03300
Br3247     Br  0.69720230  0.45997821  0.94190838    -0.03000
H3248       H  0.62988676  0.45205102  0.94920473     0.09100
H3249       H  0.64632259  0.98207513  0.83684875     0.07200
Br3250     Br  0.57779679  0.96764529  0.84539830    -0.03400
C3251       C  0.81671111  0.98972834  0.95052732    -0.10100
C3252       C  0.84383614  0.98273763  0.93234755     0.06100
C3253       C  0.84127029  0.98068221  0.89944113    -0.03800
C3254       C  0.81241307  0.98600932  0.88547856    -0.08300
C3255       C  0.78521843  0.99275700  0.90346954     0.05200
C3256       C  0.78777032  0.99537307  0.93616069    -0.03300
Br3257     Br  0.75446820  0.51272965  0.96115616    -0.03000
H3258       H  0.81853527  0.99305207  0.97554155     0.09100
H3259       H  0.81124264  0.98504303  0.86014630     0.07200
Br3260     Br  0.87636972  0.97113298  0.87174501    -0.03400
C3261       C  0.64593423  0.51207386  0.51118570    -0.10100
C3262       C  0.62293257  0.49385006  0.52827299     0.06100
C3263       C  0.63273598  0.47445586  0.55386371    -0.03800
C3264       C  0.66420260  0.47534533  0.56250329    -0.08300
C3265       C  0.68567328  0.49733737  0.54860501     0.05200
C3266       C  0.67664570  0.51494620  0.52184957    -0.03300
Br3267     Br  0.70202877  0.54905908  0.50384182    -0.03000
H3268       H  0.64044702  0.52955931  0.99495902     0.09100
H3269       H  0.66995777  0.46330722  0.58420852     0.07200
Br3270     Br  0.60497170  0.44964012  0.58202369    -0.03400
C3271       C  0.83858529  0.54807371  0.54555356    -0.10100
C3272       C  0.85901049  0.52745659  0.56085892     0.06100
C3273       C  0.84692024  0.00762487  0.58539233    -0.03800
C3274       C  0.81457720  0.00717589  0.59324634    -0.08300
C3275       C  0.79373839  0.52607145  0.57668083     0.05200
C3276       C  0.80607398  0.54725136  0.55301254    -0.03300
Br3277     Br  0.77946689  0.57283701  0.52764120    -0.03000
H3278       H  0.84747258  0.56289955  0.52595837     0.09100
H3279       H  0.80550787  0.99154097  0.61213736     0.07200
Br3280     Br  0.87306137  0.97859318  0.60772302    -0.03400
C3281       C  0.93335763  0.64349104  0.95813261    -0.10100
C3282       C  0.91663329  0.61804423  0.94581326     0.06100
C3283       C  0.88633981  0.62244413  0.93466430    -0.03800
C3284       C  0.87269555  0.65199701  0.93699802    -0.08300
C3285       C  0.88861388  0.67768471  0.95082169     0.05200
C3286       C  0.91919821  0.67248347  0.96235045    -0.03300
Br3287     Br  0.93660268  0.70021441  0.48639305    -0.03000
H3288       H  0.95640710  0.63962960  0.96795695     0.09100
H3289       H  0.84817039  0.65330078  0.93084530     0.07200
Br3290     Br  0.86051294  0.58766130  0.92178362    -0.03400
C3291       C  0.89496414  0.84682338  0.99452485    -0.10100
C3292       C  0.92045283  0.85493701  0.97342420     0.06100
C3293       C  0.92824667  0.83308837  0.95001496    -0.03800
C3294       C  0.91029382  0.80504520  0.94774462    -0.08300
C3295       C  0.88497857  0.79665872  0.96910431     0.05200
C3296       C  0.87743813  0.81850329  0.99271332    -0.03300
Br3297     Br  0.84450585  0.81213662  0.02442216    -0.03000
H3298       H  0.88842332  0.86271076  0.01304656     0.09100
H3299       H  0.91651328  0.78959743  0.92879856     0.07200
Br3300     Br  0.96298805  0.83926856  0.92013661    -0.03400
C3301       C  0.56810295  0.63587625  0.96832690    -0.10100
C3302       C  0.54158401  0.63136054  0.98908412     0.06100
C3303       C  0.53179273  0.65732472  0.00677359    -0.03800
C3304       C  0.54759101  0.68667070  0.00245898    -0.08300
C3305       C  0.57335811  0.69159002  0.98046938     0.05200
C3306       C  0.58439260  0.66473532  0.96472640    -0.03300
Br3307     Br  0.62306107  0.66410803  0.93964529    -0.03000
H3308       H  0.57713158  0.61645812  0.95488346     0.09100
H3309       H  0.54016192  0.70487579  0.01806025     0.07200
Br3310     Br  0.99882632  0.65456477  0.03844302    -0.03400
C3311       C  0.59781921  0.83233935  0.51135558    -0.10100
C3312       C  0.57395766  0.81045546  0.99862705     0.06100
C3313       C  0.54091576  0.81620764  0.99988660    -0.03800
C3314       C  0.52967257  0.84389722  0.01289953    -0.08300
C3315       C  0.55293570  0.86694762  0.51888332     0.05200
C3316       C  0.58580039  0.86195408  0.51888990    -0.03300
Br3317     Br  0.61568169  0.89552057  0.52412672    -0.03000
H3318       H  0.62314449  0.82910755  0.51185211     0.09100
H3319       H  0.50448517  0.84841481  0.01212007     0.07200
Br3320     Br  0.50973771  0.79216103  0.97820154    -0.03400
C3321       C  0.96262206  0.58432156  0.66098125    -0.10100
C3322       C  0.98881513  0.58415532  0.68017521     0.06100
C3323       C  0.51560636  0.56716967  0.66982709    -0.03800
C3324       C  0.51577373  0.55075540  0.64131282    -0.08300
C3325       C  0.98967711  0.55097869  0.62203958     0.05200
C3326       C  0.96269748  0.56815847  0.63253897    -0.03300
Br3327     Br  0.92398829  0.56984966  0.61015854    -0.03000
H3328       H  0.94151733  0.59659827  0.66853708     0.09100
H3329       H  0.53688504  0.53840560  0.63395855     0.07200
Br3330     Br  0.55365852  0.56660180  0.69314379    -0.03400
C3331       C  0.48329259  0.60096616  0.82725362    -0.10100
C3332       C  0.99099774  0.58260801  0.80117408     0.06100
C3333       C  0.01425049  0.55883231  0.80539129    -0.03800
C3334       C  0.02521408  0.55167513  0.83537335    -0.08300
C3335       C  0.01587869  0.56926536  0.86115943     0.05200
C3336       C  0.49643909  0.59518371  0.85625575    -0.03300
Br3337     Br  0.48634918  0.62285972  0.88995114    -0.03000
H3338       H  0.46909750  0.62185727  0.82508741     0.09100
H3339       H  0.04002640  0.53129550  0.83887730     0.07200
Br3340     Br  0.03475129  0.53622461  0.77234611    -0.03400
C3341       C  0.91221550  0.66559168  0.70968408    -0.10100
C3342       C  0.92786545  0.66245067  0.73812208     0.06100
C3343       C  0.91651112  0.68067584  0.76361831    -0.03800
C3344       C  0.88843697  0.69825277  0.76137197    -0.08300
C3345       C  0.87120705  0.69908976  0.73372653     0.05200
C3346       C  0.88467485  0.68388550  0.70717840    -0.03300
Br3347     Br  0.86744209  0.68847416  0.66616232    -0.03000
H3348       H  0.92095980  0.65310642  0.68940827     0.09100
H3349       H  0.87958131  0.71056169  0.78171290     0.07200
Br3350     Br  0.93909856  0.68401444  0.80180929    -0.03400
C3351       C  0.54896964  0.67921457  0.76459262    -0.10100
C3352       C  0.53905927  0.66486164  0.73675038     0.06100
C3353       C  0.56088902  0.66278204  0.71158271    -0.03800
C3354       C  0.59235246  0.67154632  0.71556926    -0.08300
C3355       C  0.60282038  0.68404672  0.74400438     0.05200
C3356       C  0.58069598  0.68768922  0.76875805    -0.03300
Br3357     Br  0.59268139  0.70244805  0.80888278    -0.03000
H3358       H  0.53245282  0.68071860  0.78448413     0.09100
H3359       H  0.60880517  0.66925420  0.69573203     0.07200
Br3360     Br  0.54942613  0.64793544  0.67137801    -0.03400
loop_ 
_geom_bond_atom_site_label_1 
_geom_bond_atom_site_label_2 
_geom_bond_distance 
_geom_bond_site_symmetry_2 
_ccdc_geom_bond_type 
C1            C2   1.545       .  S
C1            C5   1.533       .  S
C1         C1687   1.511       .  S
C1          C392   1.533       .  S
C2            H9   1.085       .  S
C2            C3   1.371       .  D
C3         C1684   1.571       .  S
C3          C402   1.522       .  S
C4            C8   1.553   1_655  S
C4         C1683   1.572       .  S
C4         C1686   1.576       .  S
C4           H10   1.110       .  S
C5           H11   1.080       .  S
C5            C6   1.367       .  D
C6         C1684   1.575       .  S
C6          C382   1.509       .  S
C7         C1681   1.511   1_455  S
C7           H12   1.090       .  S
C7            C8   1.348       .  D
C8          C412   1.482       .  S
O13         Eu49   2.512       .  S
O13        C1704   1.298       .  A
O14        Eu468   2.492       .  S
O14          C25   1.295       .  A
O15        Eu861   2.467       .  S
O15          C26   1.291       .  A
O16         Eu21   2.476       .  S
O16          C27   1.292       .  A
O17        Eu471   2.414       .  S
O17          C27   1.285       .  A
O18         Eu50   2.429       .  S
O18          C26   1.286       .  A
O19        Eu861   2.383       .  S
O19          C25   1.276       .  A
O20         Eu21   2.347       .  S
O20          C24   1.273       .  A
Eu21        O855   2.464   1_545  S
Eu21        O859   2.388   1_545  S
Eu21         O31   2.345       .  S
Eu21         O22   2.323       .  S
Eu21        O863   2.344   1_545  S
Eu21        O869   2.337   1_545  S
O22        Eu471   2.355       .  S
O22       Eu1308   2.353   1_545  S
O23         Eu50   2.335       .  S
O23        Eu861   2.344       .  S
O23       Eu2569   2.340       .  S
C24        O1693   1.298       .  A
C24         C395   1.453       .  S
C25         C312   1.474       .  S
C26         C295   1.460       .  S
C27         C342   1.471       .  S
H28          O29   0.966       .  S
O29         Eu50   2.356       .  S
O29        Eu861   2.336       .  S
O29        Eu468   2.347       .  S
H30          O31   0.966       .  S
O31       Eu1729   2.345       .  S
O31        Eu471   2.341       .  S
O32         Eu48   2.499       .  S
O32          C55   1.296       .  A
O33         Eu49   2.486       .  S
O33         C476   1.297   1_545  A
O34         Eu50   2.507       .  S
O34          C57   1.298       .  A
O35         Eu51   2.513       .  S
O35          C58   1.300       .  A
O36         Eu51   2.508       .  S
O36        C2159   1.298   1_554  A
O37       Eu1730   2.542       .  S
O37          C60   1.304       .  A
O38         Eu52   2.518       .  S
O38          C61   1.300       .  A
O39        Eu892   2.576   1_545  S
O39        C1742   1.311   1_455  A
O40       Eu1730   2.387       .  S
O40         C481   1.281       .  A
O41         Eu51   2.406       .  S
O41          C62   1.281       .  A
O42        Eu468   2.448       .  S
O42          C57   1.291       .  A
O43        Eu889   2.407       .  S
O43          C60   1.282       .  A
O44         Eu49   2.402       .  S
O44          C59   1.283       .  A
O45         Eu48   2.400       .  S
O45         C898   1.282       .  A
O46       Eu1732   2.374       .  S
O46          C55   1.279       .  A
O47         Eu52   2.416       .  S
O47         C896   1.282       .  A
Eu48        O434   2.508   1_554  S
Eu48        O462   2.442   1_554  S
Eu48         O66   2.356       .  S
Eu48       O1282   2.355   1_554  S
Eu48        O449   2.355   1_554  S
Eu48        O474   2.349       .  S
Eu49        O883   2.407   1_545  S
Eu49       O2543   2.341   1_545  S
Eu49       O1711   2.345   1_455  S
Eu49        O473   2.372       .  S
Eu49        O904   2.340   1_545  S
Eu50       O1717   2.541       .  S
Eu50       O1720   2.387       .  S
Eu50         O54   2.375       .  S
Eu50       O1744   2.337       .  S
Eu51        O437   2.378   1_554  S
Eu51        O442   2.355   1_554  S
Eu51        O451   2.340   1_554  S
Eu51       O1733   2.367       .  S
Eu51        O906   2.330   1_545  S
Eu52        O879   2.576       .  S
Eu52       O1726   2.374   1_455  S
Eu52        O893   2.354       .  S
Eu52        O484   2.355   1_554  S
Eu52       O1746   2.338   1_455  S
Eu52       O2154   2.370   1_455  S
O53        Eu469   2.370   1_554  S
O53       Eu1731   2.368   1_455  S
O53        Eu892   2.353   1_545  S
O54        Eu468   2.355       .  S
O54       Eu2152   2.372       .  S
C55         C282   1.460       .  S
C56         O453   1.296   1_564  A
C56         O887   1.282       .  A
C56         C322   1.488       .  S
C57         C352   1.508       .  S
C58         O885   1.282   1_545  A
C58         C332   1.476       .  S
C59        O2136   1.301       .  A
C59         C362   1.503       .  S
C60         C302   1.485       .  S
C61         O460   1.280   1_554  A
C61         C375   1.467       .  S
C62        O1719   1.311       .  A
C62         C385   1.511       .  S
H63          O64   0.965       .  S
O64        Eu889   2.341       .  S
O64       Eu1730   2.337       .  S
O64        Eu472   2.359       .  S
H65          O66   0.965       .  S
O66        Eu891   2.331       .  S
O66       Eu1732   2.339       .  S
C67          C68   1.511       .  S
C67          C73   1.531       .  S
C67          C71   1.553       .  S
C67         C272   1.519       .  S
C68          H75   1.089       .  S
C68          C69   1.352       .  D
C69         C910   1.547       .  S
C69         C325   1.472   1_545  S
C70          C72   1.549       .  S
C70         C909   1.546       .  S
C70         C914   1.552       .  S
C70          H76   1.110       .  S
C71          H77   1.080       .  S
C71         C912   1.375   1_545  D
C72         C911   1.374       .  D
C72         C262   1.501       .  S
C73          H78   1.087       .  S
C73          C74   1.360       .  D
C74         C910   1.552       .  S
C74         C335   1.487       .  S
O79        Eu115   2.548       .  S
O79          C90   1.306       .  A
O80        Eu114   2.497       .  S
O80          C91   1.295       .  A
O81         Eu87   2.464       .  S
O81          C92   1.290       .  A
O82         Eu87   2.437       .  S
O82          C93   1.285       .  A
O83        Eu117   2.428       .  S
O83          C93   1.287       .  A
O84        Eu116   2.424       .  S
O84          C92   1.285       .  A
O85         Eu87   2.430       .  S
O85          C91   1.285       .  A
O86         Eu87   2.344       .  S
O86          C90   1.273       .  A
Eu87         O97   2.363       .  S
Eu87         O89   2.345       .  S
Eu87         O88   2.330       .  S
Eu87         O95   2.333       .  S
O88        Eu117   2.360       .  S
O88        Eu114   2.346       .  S
O89        Eu115   2.356       .  S
O89        Eu116   2.333       .  S
C90         C415   1.481       .  S
C91         C195   1.485       .  S
C92         C252   1.460       .  S
C93         C275   1.444       .  S
H94          O95   0.966       .  S
O95        Eu116   2.361       .  S
O95        Eu114   2.357       .  S
H96          O97   0.965       .  S
O97        Eu115   2.337       .  S
O97        Eu117   2.348       .  S
O98        Eu114   2.455       .  S
O98         C121   1.288       .  A
O99        Eu115   2.510       .  S
O99         C122   1.300       .  A
O100       Eu116   2.503       .  S
O100        C123   1.297       .  A
O101       Eu117   2.552       .  S
O101        C124   1.307       .  A
O102       Eu117   2.547       .  S
O102        C125   1.306       .  A
O103       Eu116   2.544       .  S
O103        C126   1.304       .  A
O104       Eu118   2.571       .  S
O104        C127   1.309       .  A
O105       Eu118   2.570       .  S
O105        C128   1.311       .  A
O106       Eu116   2.358       .  S
O106        C127   1.269       .  A
O107       Eu117   2.433       .  S
O107        C128   1.287       .  A
O108       Eu114   2.441       .  S
O108        C123   1.288       .  A
O109       Eu115   2.416       .  S
O109        C126   1.284       .  A
O110       Eu115   2.451       .  S
O110        C125   1.291       .  A
O111       Eu114   2.418       .  S
O111        C124   1.283       .  A
O112       Eu118   2.418       .  S
O112        C121   1.285       .  A
O113       Eu118   2.467       .  S
O113        C122   1.294       .  A
Eu114       O132   2.365       .  S
Eu114       O120   2.361       .  S
Eu115       O119   2.379       .  S
Eu115       O130   2.357       .  S
Eu116       O130   2.340       .  S
Eu116       O120   2.362       .  S
Eu117       O119   2.376       .  S
Eu117       O132   2.355       .  S
Eu118       O119   2.377       .  S
Eu118       O130   2.354       .  S
Eu118       O132   2.367       .  S
Eu118       O120   2.364       .  S
C121        C242   1.447       .  S
C122        C205   1.497       .  S
C123        C265   1.484       .  S
C124        C212   1.491       .  S
C125        C235   1.525       .  S
C126        C185   1.487       .  S
C127        C222   1.503       .  S
C128        C405   1.513       .  S
H129        O130   0.964       .  S
H131        O132   0.966       .  S
C133        C139   1.545       .  S
C133        C137   1.545       .  S
C133        C554   1.538       .  S
C133        C365   1.553       .  S
C134        C553   1.536       .  S
C134        H141   1.087   1_556  S
C134        C135   1.367       .  D
C135        C556   1.555       .  S
C135        C192   1.498   1_556  S
C136        C140   1.548       .  S
C136        C138   1.538       .  S
C136        C555   1.553       .  S
C136        H142   1.107       .  S
C137        H143   1.074       .  S
C137        C138   1.363       .  D
C138        C372   1.494       .  S
C139        H144   1.086       .  S
C139        C140   1.372       .  D
C140        C182   1.512       .  S
C145        C146   1.527       .  S
C145        C151   1.544       .  S
C145        C149   1.544       .  S
C145        C292   1.530       .  S
C146       H1833   1.087       .  S
C146        C147   1.355       .  D
C147        C148   1.528       .  S
C147       C1935   1.467       .  S
C148        C152   1.530       .  S
C148        C150   1.533       .  S
C148        H154   1.110       .  S
C149        H155   1.084       .  S
C149        C150   1.371       .  D
C150        C285   1.489       .  S
C151        H156   1.082       .  S
C151        C152   1.370       .  D
C152        C245   1.470       .  S
H153       C1826   1.087   1_455  S
C157        C158   1.523       .  S
C157        C163   1.527       .  S
C157        C161   1.544       .  S
C157        C345   1.530       .  S
C158        H165   1.084       .  S
C158        C159   1.358       .  D
C159        C160   1.557       .  S
C159        C202   1.490       .  S
C160        C164   1.558       .  S
C160        C162   1.564       .  S
C160        H166   1.104       .  S
C161        H167   1.083       .  S
C161        C162   1.379       .  D
C162        C355   1.524       .  S
C163        H588   1.088       .  S
C163        C164   1.354       .  D
C164        C635   1.488       .  S
H168        C583   1.087   1_554  S
C169        C170   1.536       .  S
C169        C175   1.540       .  S
C169       C1013   1.553   1_545  S
C169        C232   1.570       .  S
C170        H177   1.087       .  S
C170       C1011   1.373       .  D
C171        C172   1.549       .  S
C171       C1010   1.373       .  D
C171        C315   1.483       .  S
C172        C176   1.558       .  S
C172        C174   1.535       .  S
C172        H178   1.106       .  S
C173       C1009   1.553       .  S
C173        H179   1.080       .  S
C173        C174   1.371       .  D
C174        C225   1.491       .  S
C175        H180   1.085       .  S
C175       C1016   1.377   1_545  D
C176       C1015   1.377       .  D
C176        C305   1.522       .  S
C181        C182   1.413       .  A
C181        C186   1.411       .  A
C181        H188   1.083       .  S
C182        C183   1.417       .  A
C183        C184   1.406       .  A
C183       Br190   1.912       .  S
C184        C185   1.404       .  A
C184        H189   1.084       .  S
C185        C186   1.407       .  A
C186       Br187   1.914       .  S
C191        C192   1.405       .  A
C191        C196   1.398       .  A
C191        H198   1.080       .  S
C192        C193   1.413       .  A
C193        C194   1.409       .  A
C193       Br200   1.914   1_554  S
C194        C195   1.405       .  A
C194        H199   1.081       .  S
C195        C196   1.410       .  A
C196       Br197   1.922       .  S
C201        C202   1.399       .  A
C201        C206   1.405       .  A
C201        H208   1.084       .  S
C202        C203   1.415       .  A
C203        C204   1.403       .  A
C203       Br210   1.919       .  S
C204        C205   1.403       .  A
C204        H209   1.083       .  S
C205        C206   1.418       .  A
C206       Br207   1.910       .  S
C211        C212   1.406       .  A
C211        C216   1.408       .  A
C211        H218   1.083       .  S
C212        C213   1.411       .  A
C213        C214   1.410       .  A
C213       Br220   1.914       .  S
C214        C215   1.405       .  A
C214        H219   1.083       .  S
C215        C584   1.496       .  S
C215        C216   1.414       .  A
C216       Br217   1.921       .  S
C221        C222   1.405       .  A
C221        C226   1.413       .  A
C221        H228   1.081       .  S
C222        C223   1.434       .  A
C223        C224   1.386       .  A
C223       Br230   1.930       .  S
C224        C225   1.388       .  A
C224        H229   1.085       .  S
C225        C226   1.418       .  A
C226       Br227   1.908       .  S
C231        C232   1.421       .  A
C231        C236   1.415       .  A
C231        H238   1.074       .  S
C232        C233   1.420       .  A
C233        C234   1.411       .  A
C233       Br240   1.924       .  S
C234        C235   1.415       .  A
C234        H239   1.083       .  S
C235        C236   1.416       .  A
C236       Br237   1.921       .  S
C241        C242   1.406       .  A
C241        C246   1.396       .  A
C241        H248   1.084       .  S
C242        C243   1.400       .  A
C243        C244   1.388       .  A
C243       Br250   1.920       .  S
C244        C245   1.407       .  A
C244        H249   1.083       .  S
C245        C246   1.401       .  A
C246       Br247   1.918       .  S
C251        C252   1.402       .  A
C251        C256   1.396       .  A
C251        H258   1.084       .  S
C252        C253   1.406       .  A
C253        C254   1.398       .  A
C253       Br260   1.919       .  S
C254        C255   1.401       .  A
C254        H259   1.084       .  S
C255       C1827   1.467       .  S
C255        C256   1.406       .  A
C256       Br257   1.919       .  S
C261        C262   1.406       .  A
C261        C266   1.400       .  A
C261        H268   1.080       .  S
C262        C263   1.418       .  A
C263        C264   1.407       .  A
C263       Br270   1.921       .  S
C264        C265   1.404       .  A
C264        H269   1.083       .  S
C265        C266   1.409       .  A
C266       Br267   1.921       .  S
C271        C272   1.408       .  A
C271        C276   1.392       .  A
C271        H278   1.076       .  S
C272        C273   1.428       .  A
C273        C274   1.386       .  A
C273       Br280   1.921       .  S
C274        C275   1.385       .  A
C274        H279   1.083       .  S
C275        C276   1.401       .  A
C276       Br277   1.919       .  S
C281        C282   1.406       .  A
C281        C286   1.391       .  A
C281        H288   1.085       .  S
C282        C283   1.395       .  A
C283        C284   1.397       .  A
C283       Br290   1.918       .  S
C284        C285   1.417       .  A
C284        H289   1.078       .  S
C285        C286   1.410       .  A
C286      Br1967   1.923       .  S
Br287      C1966   1.923       .  S
C291        C292   1.413       .  A
C291        C296   1.395       .  A
C291        H298   1.075       .  S
C292        C293   1.423       .  A
C293        C294   1.397       .  A
C293      Br1980   1.925       .  S
C294        C295   1.396       .  A
C294       H1979   1.084       .  S
C295        C296   1.400       .  A
C296       Br297   1.920       .  S
H299       C1974   1.084   1_455  S
Br300      C1973   1.926   1_455  S
C301        C302   1.402       .  A
C301        C306   1.410       .  A
C301       H1148   1.084       .  S
C302        C303   1.405       .  A
C303        C304   1.406       .  A
C303       Br310   1.915       .  S
C304        C305   1.414       .  A
C304        H309   1.083       .  S
C305        C306   1.423       .  A
C306      Br1147   1.909       .  S
Br307      C1146   1.909       .  S
H308       C1141   1.084       .  S
C311        C312   1.403       .  A
C311        C316   1.404       .  A
C311        H318   1.084       .  S
C312        C313   1.417       .  A
C313        C314   1.385       .  A
C313       Br320   1.927       .  S
C314        C315   1.396       .  A
C314        H319   1.084       .  S
C315        C316   1.410       .  A
C316      Br1157   1.900       .  S
Br317      C1156   1.900       .  S
C321        C322   1.404   1_545  A
C321        C326   1.396       .  A
C321        H748   1.083   1_554  S
C322        C323   1.425       .  A
C323        C324   1.396       .  A
C323       Br330   1.930       .  S
C324        C325   1.399       .  A
C324        H329   1.081       .  S
C325        C326   1.408   1_565  A
C326       Br327   1.912       .  S
H328        C741   1.083       .  S
C331        C332   1.399       .  A
C331        C336   1.402       .  A
C331        H338   1.084       .  S
C332       C1173   1.413       .  A
C333        C334   1.397       .  A
C333       C1172   1.413       .  A
C333       Br340   1.921       .  S
C334       C1175   1.400       .  A
C334        H339   1.084       .  S
C335        C336   1.417       .  A
C335       C1174   1.400       .  A
C336       Br337   1.915       .  S
C341        C342   1.401       .  A
C341        C346   1.387       .  A
C341        H348   1.084       .  S
C342        C343   1.402       .  A
C343        C344   1.402       .  A
C343       Br350   1.922       .  S
C344        C345   1.424       .  A
C344        H349   1.078       .  S
C345        C346   1.415       .  A
C346       Br767   1.924       .  S
Br347       C766   1.926       .  S
C351        C352   1.409       .  A
C351        C356   1.404       .  A
C351        H358   1.083       .  S
C352        C353   1.415       .  A
C353        C354   1.409       .  A
C353       Br360   1.922       .  S
C354        C355   1.417       .  A
C354        H359   1.082       .  S
C355        C356   1.422       .  A
C356       Br357   1.919       .  S
C361        C362   1.414       .  A
C361        C366   1.402       .  A
C361        H368   1.083       .  S
C362        C363   1.408       .  A
C363        C364   1.403       .  A
C363      Br2050   1.923   1_455  S
C364        C365   1.421       .  A
C364        H369   1.071       .  S
C365        C366   1.416       .  A
C366       Br367   1.925       .  S
Br370      C2043   1.923       .  S
C371        C376   1.399       .  A
C371        C792   1.408   1_554  A
C371        H378   1.081       .  S
C372        C373   1.416       .  A
C372        C791   1.409       .  A
C373        C374   1.393       .  A
C373       Br380   1.928       .  S
C374        C795   1.404       .  A
C374        H379   1.085       .  S
C375        C376   1.405       .  A
C375        C794   1.404       .  A
C376       Br377   1.908       .  S
C381        C382   1.397       .  A
C381        C386   1.408       .  A
C381        H388   1.084       .  S
C382       C2063   1.424       .  A
C383        C384   1.413       .  A
C383       C2062   1.424   1_455  A
C383       Br390   1.917       .  S
C384       C2065   1.402   1_455  A
C384        H389   1.083       .  S
C385        C386   1.428       .  A
C385       C2064   1.403       .  A
C386       Br387   1.920       .  S
C391        C396   1.389       .  A
C391       C2072   1.414       .  A
C391        H398   1.081       .  S
C392        C393   1.430       .  A
C392       C2071   1.415       .  A
C393        C394   1.401       .  A
C393       Br400   1.915       .  S
C394        C395   1.395       .  A
C394        H399   1.083       .  S
C395       C2076   1.400       .  A
C396       C2075   1.400   1_655  A
C396       Br397   1.919       .  S
C401        C402   1.403       .  A
C401        C406   1.413       .  A
C401        H408   1.083       .  S
C402        C403   1.426       .  A
C403        C404   1.414       .  A
C403       Br410   1.919       .  S
C404        C405   1.402       .  A
C404        H409   1.083       .  S
C405        C406   1.425       .  A
C406       Br407   1.921       .  S
C411        C412   1.415       .  A
C411        C416   1.402       .  A
C411        H418   1.084       .  S
C412        C413   1.399       .  A
C413        C414   1.395       .  A
C413       Br420   1.914       .  S
C414        C415   1.415       .  A
C414        H419   1.084       .  S
C415        C416   1.403       .  A
C416       Br417   1.911       .  S
C421        C422   1.546       .  S
C421       C2107   1.505       .  S
C421        C425   1.536       .  S
C421        C812   1.528       .  S
C422        H429   1.086       .  S
C422        C423   1.369       .  D
C423       C2104   1.567       .  S
C423        C822   1.521       .  S
C424       C2103   1.567       .  S
C424        C428   1.555   1_655  S
C424       C2106   1.578       .  S
C424        H430   1.109       .  S
C425        H431   1.083       .  S
C425        C426   1.371       .  D
C426       C2104   1.578       .  S
C426        C802   1.510       .  S
C427       C2101   1.505   1_455  S
C427        H432   1.091       .  S
C427        C428   1.344       .  D
C428        C832   1.482       .  S
O433       Eu469   2.490       .  S
O433       C2124   1.294       .  A
O434        C445   1.298       .  A
O435      Eu1281   2.470       .  S
O435        C446   1.291       .  A
O436       Eu441   2.466       .  S
O436        C447   1.291       .  A
O437        C447   1.279       .  A
O438       Eu470   2.422       .  S
O438        C446   1.285       .  A
O439      Eu1281   2.407       .  S
O439        C445   1.282       .  A
O440       Eu441   2.375       .  S
O440        C444   1.278       .  A
Eu441      O1275   2.469   1_545  S
Eu441      O1279   2.406   1_545  S
Eu441       O451   2.339       .  S
Eu441      O1283   2.345   1_545  S
Eu441       O442   2.338       .  S
Eu441      O1289   2.342   1_545  S
O442       Eu888   2.356   1_546  S
O443      Eu1281   2.345       .  S
O443      Eu2989   2.351       .  S
O443       Eu470   2.334       .  S
C444       O2113   1.294       .  A
C444        C815   1.449       .  S
C445        C732   1.480       .  S
C446        C715   1.460       .  S
C447        C762   1.451       .  S
H448        O449   0.966       .  S
O449      Eu1281   2.343       .  S
O449       Eu470   2.356       .  S
H450        O451   0.965       .  S
O451      Eu2149   2.335       .  S
O452       Eu468   2.472       .  S
O452        C475   1.292       .  A
O453       Eu469   2.482       .  S
O454       Eu470   2.517       .  S
O454        C477   1.300       .  A
O455       Eu471   2.507       .  S
O455        C478   1.299       .  A
O456       Eu471   2.525       .  S
O456       C1739   1.302       .  A
O457      Eu2150   2.547       .  S
O457        C480   1.305       .  A
O458       Eu472   2.531       .  S
O458        C481   1.303       .  A
O459      Eu1312   2.575   1_545  S
O459       C2162   1.311   1_455  A
O460      Eu2150   2.379       .  S
O461       Eu471   2.424       .  S
O461        C482   1.285       .  A
O462        C477   1.290       .  A
O463      Eu1309   2.416       .  S
O463        C480   1.284       .  A
O464       Eu469   2.422       .  S
O464        C479   1.286       .  A
O465       Eu468   2.401       .  S
O465       C1318   1.282       .  A
O466      Eu2152   2.398       .  S
O466        C475   1.283       .  A
O467       Eu472   2.411       .  S
O467       C1316   1.282       .  A
Eu468       O862   2.350       .  S
Eu468       O486   2.361       .  S
Eu469      O1303   2.419   1_545  S
Eu469      O2963   2.352   1_545  S
Eu469      O2131   2.335   1_455  S
Eu469      O1324   2.336   1_545  S
Eu470      O2137   2.547       .  S
Eu470      O2140   2.379       .  S
Eu470      O2164   2.344       .  S
Eu470       O474   2.367   1_556  S
Eu471      O2153   2.361       .  S
Eu471      O1326   2.344   1_545  S
Eu472      O1299   2.578       .  S
Eu472      O2146   2.398   1_455  S
Eu472      O1313   2.362       .  S
Eu472      O2166   2.338   1_455  S
Eu472      O1734   2.372   1_455  S
O473      Eu2151   2.361   1_455  S
O473      Eu1312   2.361   1_545  S
O474      Eu1732   2.369       .  S
C475        C702   1.457       .  S
C476       O1307   1.282       .  A
C476        C742   1.484       .  S
C477        C772   1.509       .  S
C478       O1305   1.282   1_545  A
C478        C752   1.470       .  S
C479       O1716   1.298   1_456  A
C479        C782   1.502       .  S
C480        C722   1.491       .  S
C481        C795   1.474       .  S
C482       O2139   1.311       .  A
C482        C805   1.515       .  S
H483        O484   0.966       .  S
O484      Eu1309   2.336       .  S
O484      Eu2150   2.344       .  S
H485        O486   0.966       .  S
O486      Eu1311   2.343       .  S
O486      Eu2152   2.339       .  S
C487        C488   1.514       .  S
C487        C493   1.530       .  S
C487        C491   1.549       .  S
C487        C692   1.517       .  S
C488        H495   1.089       .  S
C488        C489   1.354       .  D
C489       C1330   1.547   1_545  S
C489        C745   1.468   1_545  S
C490       C1329   1.545       .  S
C490       C1334   1.547       .  S
C490        C492   1.550       .  S
C490        H496   1.110       .  S
C491        H497   1.081       .  S
C491       C1332   1.373   1_545  D
C492       C1331   1.374       .  D
C492        C682   1.500       .  S
C493        H498   1.087       .  S
C493        C494   1.357       .  D
C494       C1330   1.547   1_545  S
C494        C755   1.476       .  S
O499       Eu535   2.541       .  S
O499        C510   1.304       .  A
O500       Eu534   2.487       .  S
O500        C511   1.293       .  A
O501       Eu507   2.490       .  S
O501        C512   1.294       .  A
O502       Eu507   2.445       .  S
O502        C513   1.287       .  A
O503       Eu537   2.435       .  S
O503        C513   1.288       .  A
O504       Eu536   2.422       .  S
O504        C512   1.284       .  A
O505       Eu507   2.422       .  S
O505        C511   1.285       .  A
O506       Eu507   2.331       .  S
O506        C510   1.271       .  A
Eu507       O517   2.360       .  S
Eu507       O509   2.342       .  S
Eu507       O508   2.340       .  S
Eu507       O515   2.319       .  S
O508       Eu537   2.364       .  S
O508       Eu534   2.347       .  S
O509       Eu535   2.357       .  S
O509       Eu536   2.323       .  S
C510        C835   1.476       .  S
C511        C615   1.479       .  S
C512        C672   1.476       .  S
C513        C695   1.446       .  S
H514        O515   0.966       .  S
O515       Eu536   2.351       .  S
O515       Eu534   2.359       .  S
H516        O517   0.964       .  S
O517       Eu535   2.329       .  S
O517       Eu537   2.352       .  S
O518       Eu534   2.464       .  S
O518        C541   1.290       .  A
O519       Eu535   2.508       .  S
O519        C542   1.300       .  A
O520       Eu536   2.514       .  S
O520        C543   1.299       .  A
O521       Eu537   2.533       .  S
O521        C544   1.303       .  A
O522       Eu537   2.516       .  S
O522        C545   1.300       .  A
O523       Eu536   2.551       .  S
O523        C546   1.305       .  A
O524       Eu538   2.574       .  S
O524        C547   1.310       .  A
O525       Eu538   2.566       .  S
O525        C548   1.310       .  A
O526       Eu536   2.338       .  S
O526        C547   1.268       .  A
O527       Eu537   2.451       .  S
O527        C548   1.290       .  A
O528       Eu534   2.429       .  S
O528        C543   1.285       .  A
O529       Eu535   2.415       .  S
O529        C546   1.284       .  A
O530       Eu535   2.434       .  S
O530        C545   1.288       .  A
O531       Eu534   2.417       .  S
O531        C544   1.283       .  A
O532       Eu538   2.397       .  S
O532        C541   1.282       .  A
O533       Eu538   2.448       .  S
O533        C542   1.290       .  A
Eu534       O552   2.359       .  S
Eu534       O540   2.360       .  S
Eu535       O539   2.375       .  S
Eu535       O550   2.347       .  S
Eu536       O550   2.345       .  S
Eu536       O540   2.366       .  S
Eu537       O539   2.374       .  S
Eu537       O552   2.352       .  S
Eu538       O539   2.370       .  S
Eu538       O550   2.351       .  S
Eu538       O552   2.366       .  S
Eu538       O540   2.360       .  S
C541        C662   1.446       .  S
C542        C625   1.497       .  S
C543        C685   1.483       .  S
C544        C632   1.483       .  S
C545        C655   1.508       .  S
C546        C605   1.491       .  S
C547        C642   1.491       .  S
C548        C825   1.516       .  S
H549        O550   0.964       .  S
H551        O552   0.966       .  S
C553        C559   1.546       .  S
C553        C557   1.540       .  S
C553        C785   1.550       .  S
C554        H561   1.087       .  S
C554        C555   1.370       .  D
C555        C612   1.492       .  S
C556        C560   1.554       .  S
C556        C558   1.547       .  S
C556        H562   1.108       .  S
C557        H563   1.073       .  S
C557        C558   1.364       .  D
C558        C792   1.497       .  S
C559        H564   1.085       .  S
C559        C560   1.370       .  D
C560        C602   1.513       .  S
C565        C566   1.532       .  S
C565        C571   1.546       .  S
C565        C569   1.545       .  S
C565        C712   1.536       .  S
C566       H2253   1.086       .  S
C566        C567   1.359       .  D
C567        C568   1.537       .  S
C567       C2355   1.483       .  S
C568        C572   1.534       .  S
C568        C570   1.537       .  S
C568        H574   1.110       .  S
C569        H575   1.084       .  S
C569        C570   1.372       .  D
C570        C705   1.491       .  S
C571        H576   1.082       .  S
C571        C572   1.367       .  D
C572        C665   1.482       .  S
H573       C2246   1.086       .  S
C577        C578   1.518       .  S
C577        C583   1.528       .  S
C577        C581   1.537       .  S
C577        C765   1.520       .  S
C578        H585   1.086       .  S
C578        C579   1.351       .  D
C579        C580   1.559       .  S
C579        C622   1.486       .  S
C580        C584   1.563   1_556  S
C580        C582   1.568       .  S
C580        H586   1.105       .  S
C581        H587   1.082       .  S
C581        C582   1.376       .  D
C582        C775   1.520       .  S
C583        C584   1.358   1_556  D
C589        C590   1.534       .  S
C589        C595   1.545       .  S
C589       C1433   1.542   1_545  S
C589        C652   1.556       .  S
C590        H597   1.087       .  S
C590       C1431   1.368       .  D
C591        C592   1.553       .  S
C591       C1430   1.367       .  D
C591        C735   1.488       .  S
C592        C596   1.559       .  S
C592        C594   1.535       .  S
C592        H598   1.107       .  S
C593       C1429   1.543       .  S
C593        H599   1.079       .  S
C593        C594   1.368       .  D
C594        C645   1.487       .  S
C595        H600   1.086       .  S
C595       C1436   1.375   1_545  D
C596       C1435   1.374       .  D
C596        C725   1.520       .  S
C601        C602   1.413       .  A
C601        C606   1.414       .  A
C601        H608   1.083       .  S
C602        C603   1.413       .  A
C603        C604   1.406       .  A
C603       Br610   1.909       .  S
C604        C605   1.405       .  A
C604        H609   1.085       .  S
C605        C606   1.409       .  A
C606       Br607   1.917       .  S
C611        C612   1.403       .  A
C611        C616   1.392       .  A
C611        H618   1.080       .  S
C612        C613   1.411       .  A
C613        C614   1.408       .  A
C613       Br620   1.913       .  S
C614        C615   1.406       .  A
C614        H619   1.083       .  S
C615        C616   1.410       .  A
C616       Br617   1.924       .  S
C621        C622   1.396       .  A
C621        C626   1.402       .  A
C621        H628   1.084       .  S
C622        C623   1.416       .  A
C623        C624   1.404       .  A
C623       Br630   1.919       .  S
C624        C625   1.403       .  A
C624        H629   1.083       .  S
C625        C626   1.420       .  A
C626       Br627   1.906       .  S
C631        C632   1.405       .  A
C631        C636   1.405       .  A
C631        H638   1.084       .  S
C632        C633   1.410       .  A
C633        C634   1.405       .  A
C633       Br640   1.909       .  S
C634        C635   1.402       .  A
C634        H639   1.084       .  S
C635        C636   1.413       .  A
C636       Br637   1.920       .  S
C641        C642   1.400       .  A
C641        C646   1.407       .  A
C641        H648   1.073       .  S
C642        C643   1.430       .  A
C643        C644   1.382       .  A
C643       Br650   1.924       .  S
C644        C645   1.391       .  A
C644        H649   1.085       .  S
C645        C646   1.415       .  A
C646       Br647   1.909       .  S
C651        C652   1.422       .  A
C651        C656   1.409       .  A
C651        H658   1.073       .  S
C652        C653   1.416       .  A
C653        C654   1.401       .  A
C653       Br660   1.924       .  S
C654        C655   1.412       .  A
C654        H659   1.083       .  S
C655        C656   1.413       .  A
C656       Br657   1.923       .  S
C661        C662   1.402       .  A
C661        C666   1.396       .  A
C661        H668   1.084       .  S
C662        C663   1.399       .  A
C663        C664   1.392       .  A
C663       Br670   1.924       .  S
C664        C665   1.412       .  A
C664        H669   1.083       .  S
C665        C666   1.404       .  A
C666       Br667   1.912       .  S
C671        C672   1.402       .  A
C671        C676   1.402       .  A
C671        H678   1.084       .  S
C672        C673   1.411       .  A
C673        C674   1.403       .  A
C673       Br680   1.922       .  S
C674        C675   1.404       .  A
C674        H679   1.084       .  S
C675       C2247   1.484       .  S
C675        C676   1.409       .  A
C676       Br677   1.915       .  S
C681        C682   1.407       .  A
C681        C686   1.403       .  A
C681        H688   1.079       .  S
C682        C683   1.416       .  A
C683        C684   1.404       .  A
C683       Br690   1.920       .  S
C684        C685   1.402       .  A
C684        H689   1.081       .  S
C685        C686   1.409       .  A
C686       Br687   1.921       .  S
C691        C692   1.410       .  A
C691        C696   1.396       .  A
C691        H698   1.077       .  S
C692        C693   1.425       .  A
C693        C694   1.383       .  A
C693       Br700   1.923       .  S
C694        C695   1.384       .  A
C694        H699   1.082       .  S
C695        C696   1.403       .  A
C696       Br697   1.919       .  S
C701        C702   1.404       .  A
C701        C706   1.391       .  A
C701        H708   1.085       .  S
C702        C703   1.394       .  A
C703        C704   1.395       .  A
C703       Br710   1.919       .  S
C704        C705   1.417       .  A
C704        H709   1.076       .  S
C705        C706   1.412       .  A
C706      Br2387   1.922       .  S
Br707      C2386   1.922       .  S
C711        C712   1.415       .  A
C711        C716   1.394       .  A
C711        H718   1.075       .  S
C712        C713   1.422       .  A
C713        C714   1.399       .  A
C713      Br2400   1.922       .  S
C714        C715   1.396       .  A
C714       H2399   1.084       .  S
C715        C716   1.400       .  A
C716       Br717   1.921       .  S
H719       C2394   1.084   1_455  S
Br720      C2393   1.922   1_455  S
C721        C722   1.403       .  A
C721        C726   1.407       .  A
C721       H1568   1.084       .  S
C722        C723   1.408       .  A
C723        C724   1.414       .  A
C723       Br730   1.916       .  S
C724        C725   1.416       .  A
C724        H729   1.083       .  S
C725        C726   1.417       .  A
C726      Br1567   1.907       .  S
Br727      C1566   1.906       .  S
H728       C1561   1.084       .  S
C731        C732   1.403       .  A
C731        C736   1.406       .  A
C731        H738   1.084       .  S
C732        C733   1.414       .  A
C733        C734   1.393       .  A
C733       Br740   1.919       .  S
C734        C735   1.398       .  A
C734        H739   1.084       .  S
C735        C736   1.407       .  A
C736      Br1577   1.894       .  S
Br737      C1576   1.894   1_545  S
C741        C742   1.403   1_545  A
C741        C746   1.393       .  A
C742        C743   1.423       .  A
C743        C744   1.393       .  A
C743       Br750   1.929       .  S
C744        C745   1.397       .  A
C744        H749   1.080       .  S
C745        C746   1.410   1_565  A
C746       Br747   1.913       .  S
C751        C752   1.400       .  A
C751        C756   1.400       .  A
C751        H758   1.084       .  S
C752       C1593   1.414       .  A
C753       C1592   1.413       .  A
C753        C754   1.395       .  A
C753       Br760   1.918       .  S
C754       C1595   1.396       .  A
C754        H759   1.084       .  S
C755       C1594   1.397       .  A
C755        C756   1.412       .  A
C756       Br757   1.911       .  S
C761        C762   1.403       .  A
C761        C766   1.388       .  A
C761        H768   1.085       .  S
C762        C763   1.393       .  A
C763        C764   1.390       .  A
C763       Br770   1.923       .  S
C764        C765   1.422       .  A
C764        H769   1.079       .  S
C765        C766   1.415       .  A
C771        C772   1.412       .  A
C771        C776   1.405       .  A
C771        H778   1.083   1_556  S
C772        C773   1.414       .  A
C773        C774   1.407       .  A
C773       Br780   1.922       .  S
C774        C775   1.416       .  A
C774        H779   1.081       .  S
C775        C776   1.418       .  A
C776       Br777   1.918   1_556  S
C781        C782   1.412       .  A
C781        C786   1.396       .  A
C781        H788   1.082       .  S
C782        C783   1.410   1_556  A
C783        C784   1.407       .  A
C783      Br2470   1.922   1_455  S
C784        C785   1.423   1_554  A
C784        H789   1.075       .  S
C785        C786   1.414       .  A
C786       Br787   1.924       .  S
Br790      C2463   1.922       .  S
C791        C796   1.403       .  A
C791        H798   1.082       .  S
C792        C793   1.419       .  A
C793        C794   1.394   1_556  A
C793       Br800   1.927       .  S
C794        H799   1.086       .  S
C795        C796   1.408       .  A
C796       Br797   1.910       .  S
C801        C802   1.397       .  A
C801        C806   1.408       .  A
C801        H808   1.084       .  S
C802       C2483   1.422       .  A
C803       C2482   1.422   1_455  A
C803        C804   1.416       .  A
C803       Br810   1.917       .  S
C804       C2485   1.406   1_455  A
C804        H809   1.083       .  S
C805       C2484   1.406       .  A
C805        C806   1.428       .  A
C806       Br807   1.920       .  S
C811       C2492   1.417       .  A
C811        C816   1.388       .  A
C811        H818   1.080       .  S
C812       C2491   1.417       .  A
C812        C813   1.429       .  A
C813        C814   1.399       .  A
C813       Br820   1.916       .  S
C814        C815   1.395       .  A
C814        H819   1.084       .  S
C815       C2496   1.397       .  A
C816       C2495   1.397   1_655  A
C816       Br817   1.920       .  S
C821        C822   1.403       .  A
C821        C826   1.414       .  A
C821        H828   1.083       .  S
C822        C823   1.425       .  A
C823        C824   1.415       .  A
C823       Br830   1.920       .  S
C824        C825   1.404       .  A
C824        H829   1.083       .  S
C825        C826   1.424       .  A
C826       Br827   1.920       .  S
C831        C832   1.420       .  A
C831        C836   1.401       .  A
C831        H838   1.084       .  S
C832        C833   1.397       .  A
C833        C834   1.392       .  A
C833       Br840   1.915       .  S
C834        C835   1.416       .  A
C834        H839   1.084       .  S
C835        C836   1.400       .  A
C836       Br837   1.917       .  S
C841        C842   1.544       .  S
C841       C2527   1.511       .  S
C841        C845   1.533       .  S
C841       C1232   1.531       .  S
C842        H849   1.085       .  S
C842        C843   1.370       .  D
C843       C2524   1.571       .  S
C843       C1242   1.521       .  S
C844       C2523   1.571       .  S
C844        C848   1.553   1_655  S
C844       C2526   1.575       .  S
C844        H850   1.110       .  S
C845        H851   1.081       .  S
C845        C846   1.368       .  D
C846       C2524   1.575       .  S
C846       C1222   1.508       .  S
C847       C2521   1.511   1_455  S
C847        H852   1.090       .  S
C847        C848   1.347       .  D
C848       C1252   1.482       .  S
O853       Eu889   2.512       .  S
O853       C2544   1.298       .  A
O854      Eu1308   2.490       .  S
O854        C865   1.294       .  A
O855        C866   1.290       .  A
O856       Eu861   2.479       .  S
O856        C867   1.292       .  A
O857      Eu1311   2.408       .  S
O857        C867   1.284       .  A
O858       Eu890   2.428       .  S
O858        C866   1.286       .  A
O859        C865   1.277       .  A
O860       Eu861   2.343       .  S
O860        C864   1.272       .  A
Eu861       O871   2.345       .  S
Eu861       O862   2.322       .  S
O862      Eu1311   2.353       .  S
O863      Eu1729   2.341   1_565  S
O863       Eu890   2.334       .  S
C864       O2533   1.298       .  A
C864       C1235   1.451       .  S
C865       C1152   1.475       .  S
C866       C1135   1.458       .  S
C867       C1182   1.471       .  S
H868        O869   0.966       .  S
O869       Eu890   2.358       .  S
O869      Eu1308   2.349       .  S
H870        O871   0.966       .  S
O871      Eu2569   2.345       .  S
O871      Eu1311   2.342       .  S
O872       Eu888   2.499       .  S
O872        C895   1.296       .  A
O873       Eu889   2.484       .  S
O873       C1316   1.296       .  A
O874       Eu890   2.507       .  S
O874        C897   1.298       .  A
O875       Eu891   2.510       .  S
O875        C898   1.299       .  A
O876       Eu891   2.508       .  S
O876       C2999   1.298   1_554  A
O877      Eu2570   2.543   1_455  S
O877        C900   1.304       .  A
O878       Eu892   2.517       .  S
O878        C901   1.300       .  A
O879       C2582   1.311   1_455  A
O880      Eu2570   2.386   1_455  S
O880       C1321   1.281       .  A
O881       Eu891   2.403       .  S
O881        C902   1.280       .  A
O882      Eu1308   2.449       .  S
O882        C897   1.291       .  A
O883        C900   1.282       .  A
O884       Eu889   2.402       .  S
O884        C899   1.283       .  A
O885       Eu888   2.402       .  S
O886      Eu2572   2.374       .  S
O886        C895   1.279       .  A
O887       Eu892   2.418       .  S
Eu888      O1274   2.505   1_554  S
Eu888      O1302   2.445   1_554  S
Eu888      O1289   2.356   1_554  S
Eu888       O906   2.357       .  S
Eu888      O1314   2.349       .  S
Eu889      O1703   2.340       .  S
Eu889      O2551   2.345   1_455  S
Eu889      O1313   2.372       .  S
Eu890      O2557   2.544       .  S
Eu890      O2560   2.386       .  S
Eu890      O2584   2.336       .  S
Eu890       O894   2.374       .  S
Eu891      O1277   2.379   1_554  S
Eu891      O1282   2.354   1_554  S
Eu891      O1291   2.340   1_554  S
Eu891      O2573   2.367       .  S
Eu892      O2566   2.375   1_455  S
Eu892      O1324   2.354   1_554  S
Eu892      O2586   2.340   1_455  S
Eu892      O2994   2.370   1_455  S
O893      Eu1309   2.369   1_554  S
O893      Eu2571   2.366   1_455  S
O894      Eu1308   2.354       .  S
O894      Eu2992   2.370       .  S
C895       C1122   1.460       .  S
C896       O1293   1.295   1_554  A
C896       C1162   1.486       .  S
C897       C1192   1.508       .  S
C898       C1172   1.474       .  S
C899       O2976   1.302       .  A
C899       C1202   1.504       .  S
C900       C1142   1.486       .  S
C901       O1300   1.280   1_554  A
C901       C1215   1.466       .  S
C902       O2559   1.311       .  A
C902       C1225   1.510       .  S
H903        O904   0.965       .  S
O904      Eu2570   2.336   1_455  S
O904      Eu1312   2.357       .  S
H905        O906   0.966       .  S
O906      Eu2572   2.339       .  S
C907        C908   1.510       .  S
C907        C913   1.531       .  S
C907        C911   1.552       .  S
C907       C1112   1.518       .  S
C908        H915   1.089       .  S
C908        C909   1.352       .  D
C909       C1165   1.470       .  S
C910        C912   1.549   1_545  S
C910        H916   1.110   1_545  S
C911        H917   1.080       .  S
C912       C1102   1.501       .  S
C913        H918   1.087       .  S
C913        C914   1.360       .  D
C914       C1175   1.486       .  S
O919       Eu955   2.549       .  S
O919        C930   1.306       .  A
O920       Eu954   2.497       .  S
O920        C931   1.295       .  A
O921       Eu927   2.465       .  S
O921        C932   1.290       .  A
O922       Eu927   2.436       .  S
O922        C933   1.285       .  A
O923       Eu957   2.428       .  S
O923        C933   1.287       .  A
O924       Eu956   2.423       .  S
O924        C932   1.285       .  A
O925       Eu927   2.428       .  S
O925        C931   1.285       .  A
O926       Eu927   2.345       .  S
O926        C930   1.273       .  A
Eu927       O937   2.362       .  S
Eu927       O929   2.344       .  S
Eu927       O928   2.332       .  S
Eu927       O935   2.333       .  S
O928       Eu957   2.360       .  S
O928       Eu954   2.346       .  S
O929       Eu955   2.354       .  S
O929       Eu956   2.332       .  S
C930       C1255   1.481       .  S
C931       C1035   1.484       .  S
C932       C1092   1.461       .  S
C933       C1115   1.443       .  S
H934        O935   0.966       .  S
O935       Eu956   2.360       .  S
O935       Eu954   2.358       .  S
H936        O937   0.965       .  S
O937       Eu955   2.335       .  S
O937       Eu957   2.350       .  S
O938       Eu954   2.457       .  S
O938        C961   1.289       .  A
O939       Eu955   2.506       .  S
O939        C962   1.299       .  A
O940       Eu956   2.501       .  S
O940        C963   1.297       .  A
O941       Eu957   2.556       .  S
O941        C964   1.308       .  A
O942       Eu957   2.548       .  S
O942        C965   1.306       .  A
O943       Eu956   2.543       .  S
O943        C966   1.304       .  A
O944       Eu958   2.571       .  S
O944        C967   1.309       .  A
O945       Eu958   2.570       .  S
O945        C968   1.311       .  A
O946       Eu956   2.357       .  S
O946        C967   1.269       .  A
O947       Eu957   2.434       .  S
O947        C968   1.288       .  A
O948       Eu954   2.441       .  S
O948        C963   1.288       .  A
O949       Eu955   2.417       .  S
O949        C966   1.284       .  A
O950       Eu955   2.451       .  S
O950        C965   1.291       .  A
O951       Eu954   2.419       .  S
O951        C964   1.284       .  A
O952       Eu958   2.417       .  S
O952        C961   1.285       .  A
O953       Eu958   2.467       .  S
O953        C962   1.294       .  A
Eu954       O972   2.364       .  S
Eu954       O960   2.361       .  S
Eu955       O959   2.380       .  S
Eu955       O970   2.357       .  S
Eu956       O970   2.339       .  S
Eu956       O960   2.363       .  S
Eu957       O959   2.376       .  S
Eu957       O972   2.354       .  S
Eu958       O959   2.378       .  S
Eu958       O970   2.354       .  S
Eu958       O972   2.367       .  S
Eu958       O960   2.364       .  S
C961       C1082   1.447       .  S
C962       C1045   1.494       .  S
C963       C1105   1.483       .  S
C964       C1052   1.493       .  S
C965       C1075   1.525       .  S
C966       C1025   1.486       .  S
C967       C1062   1.503       .  S
C968       C1245   1.513       .  S
H969        O970   0.964       .  S
H971        O972   0.966       .  S
C973       C1394   1.539       .  S
C973        C979   1.546       .  S
C973        C977   1.544       .  S
C973       C1205   1.554       .  S
C974       C1393   1.535       .  S
C974        H981   1.087   1_556  S
C974        C975   1.367       .  D
C975       C1396   1.555       .  S
C975       C1032   1.498   1_556  S
C976       C1395   1.553       .  S
C976        C980   1.547       .  S
C976        C978   1.538       .  S
C976        H982   1.107       .  S
C977        H983   1.074       .  S
C977        C978   1.362       .  D
C978       C1212   1.493       .  S
C979        H984   1.086       .  S
C979        C980   1.372       .  D
C980       C1022   1.511       .  S
C985        C986   1.527       .  S
C985        C991   1.544       .  S
C985        C989   1.544       .  S
C985       C1132   1.529       .  S
C986       H2673   1.087       .  S
C986        C987   1.355       .  D
C987        C988   1.528       .  S
C987       C2775   1.468       .  S
C988        C992   1.530       .  S
C988        C990   1.533       .  S
C988        H994   1.110       .  S
C989        H995   1.084       .  S
C989        C990   1.371       .  D
C990       C1125   1.490       .  S
C991        H996   1.082       .  S
C991        C992   1.370       .  D
C992       C1085   1.470       .  S
H993       C2666   1.087   1_455  S
C997        C998   1.522       .  S
C997       C1003   1.525       .  S
C997       C1001   1.545       .  S
C997       C1185   1.530       .  S
C998       H1005   1.084       .  S
C998        C999   1.358       .  D
C999       C1000   1.556       .  S
C999       C1042   1.490       .  S
C1000      C1004   1.556       .  S
C1000      C1002   1.563       .  S
C1000      H1006   1.104       .  S
C1001      H1007   1.083       .  S
C1001      C1002   1.380       .  D
C1002      C1195   1.524       .  S
C1003      H1428   1.088       .  S
C1003      C1004   1.353       .  D
C1004      C1475   1.485       .  S
H1008      C1423   1.087   1_554  S
C1009      C1010   1.535       .  S
C1009      C1015   1.540       .  S
C1009      C1072   1.570       .  S
C1010      H1017   1.087       .  S
C1011      C1012   1.549   1_545  S
C1011      C1155   1.484   1_545  S
C1012      C1016   1.559       .  S
C1012      C1014   1.536       .  S
C1012      H1018   1.106       .  S
C1013      H1019   1.080       .  S
C1013      C1014   1.371       .  D
C1014      C1065   1.491       .  S
C1015      H1020   1.085       .  S
C1016      C1145   1.524       .  S
C1021      C1022   1.412       .  A
C1021      C1026   1.411       .  A
C1021      H1028   1.083       .  S
C1022      C1023   1.417       .  A
C1023      C1024   1.405       .  A
C1023     Br1030   1.912       .  S
C1024      C1025   1.403       .  A
C1024      H1029   1.084       .  S
C1025      C1026   1.407       .  A
C1026     Br1027   1.914       .  S
C1031      C1032   1.405       .  A
C1031      C1036   1.398       .  A
C1031      H1038   1.081       .  S
C1032      C1033   1.413       .  A
C1033      C1034   1.409       .  A
C1033     Br1040   1.913   1_554  S
C1034      C1035   1.405       .  A
C1034      H1039   1.082       .  S
C1035      C1036   1.410       .  A
C1036     Br1037   1.922       .  S
C1041      C1042   1.400       .  A
C1041      C1046   1.406       .  A
C1041      H1048   1.084       .  S
C1042      C1043   1.415       .  A
C1043      C1044   1.401       .  A
C1043     Br1050   1.920       .  S
C1044      C1045   1.402       .  A
C1044      H1049   1.083       .  S
C1045      C1046   1.418       .  A
C1046     Br1047   1.911       .  S
C1051      C1052   1.407       .  A
C1051      C1056   1.408       .  A
C1051      H1058   1.083       .  S
C1052      C1053   1.411       .  A
C1053      C1054   1.411       .  A
C1053     Br1060   1.914       .  S
C1054      C1055   1.405       .  A
C1054      H1059   1.083       .  S
C1055      C1424   1.498       .  S
C1055      C1056   1.415       .  A
C1056     Br1057   1.921       .  S
C1061      C1062   1.405       .  A
C1061      C1066   1.413       .  A
C1061      H1068   1.081       .  S
C1062      C1063   1.434       .  A
C1063      C1064   1.385       .  A
C1063     Br1070   1.931       .  S
C1064      C1065   1.387       .  A
C1064      H1069   1.085       .  S
C1065      C1066   1.419       .  A
C1066     Br1067   1.907       .  S
C1071      C1072   1.421       .  A
C1071      C1076   1.414       .  A
C1071      H1078   1.074       .  S
C1072      C1073   1.420       .  A
C1073      C1074   1.411       .  A
C1073     Br1080   1.924       .  S
C1074      C1075   1.416       .  A
C1074      H1079   1.083       .  S
C1075      C1076   1.416       .  A
C1076     Br1077   1.921       .  S
C1081      C1082   1.406       .  A
C1081      C1086   1.397       .  A
C1081      H1088   1.084       .  S
C1082      C1083   1.400       .  A
C1083      C1084   1.388       .  A
C1083     Br1090   1.921       .  S
C1084      C1085   1.407       .  A
C1084      H1089   1.083       .  S
C1085      C1086   1.401       .  A
C1086     Br1087   1.918       .  S
C1091      C1092   1.402       .  A
C1091      C1096   1.396       .  A
C1091      H1098   1.084       .  S
C1092      C1093   1.406       .  A
C1093      C1094   1.398       .  A
C1093     Br1100   1.919       .  S
C1094      C1095   1.401       .  A
C1094      H1099   1.084       .  S
C1095      C2667   1.467       .  S
C1095      C1096   1.406       .  A
C1096     Br1097   1.920       .  S
C1101      C1102   1.406       .  A
C1101      C1106   1.399       .  A
C1101      H1108   1.080       .  S
C1102      C1103   1.418       .  A
C1103      C1104   1.407       .  A
C1103     Br1110   1.921       .  S
C1104      C1105   1.404       .  A
C1104      H1109   1.083       .  S
C1105      C1106   1.409       .  A
C1106     Br1107   1.921       .  S
C1111      C1112   1.408       .  A
C1111      C1116   1.391       .  A
C1111      H1118   1.076       .  S
C1112      C1113   1.428       .  A
C1113      C1114   1.386       .  A
C1113     Br1120   1.920       .  S
C1114      C1115   1.385       .  A
C1114      H1119   1.084       .  S
C1115      C1116   1.401       .  A
C1116     Br1117   1.919       .  S
C1121      C1122   1.406       .  A
C1121      C1126   1.391       .  A
C1121      H1128   1.085       .  S
C1122      C1123   1.395       .  A
C1123      C1124   1.397       .  A
C1123     Br1130   1.919       .  S
C1124      C1125   1.417       .  A
C1124      H1129   1.078       .  S
C1125      C1126   1.410       .  A
C1126     Br2807   1.923       .  S
Br1127     C2806   1.923       .  S
C1131      C1132   1.413       .  A
C1131      C1136   1.395       .  A
C1131      H1138   1.075       .  S
C1132      C1133   1.423       .  A
C1133      C1134   1.397       .  A
C1133     Br2820   1.926       .  S
C1134      C1135   1.396       .  A
C1134      H2819   1.084       .  S
C1135      C1136   1.400       .  A
C1136     Br1137   1.921       .  S
H1139      C2814   1.084   1_455  S
Br1140     C2813   1.925   1_455  S
C1141      C1142   1.403       .  A
C1141      C1146   1.410       .  A
C1142      C1143   1.405       .  A
C1143      C1144   1.407       .  A
C1143     Br1150   1.916       .  S
C1144      C1145   1.415       .  A
C1144      H1149   1.083       .  S
C1145      C1146   1.423       .  A
C1151      C1152   1.403       .  A
C1151      C1156   1.405       .  A
C1151      H1158   1.084       .  S
C1152      C1153   1.417       .  A
C1153      C1154   1.386       .  A
C1153     Br1160   1.927       .  S
C1154      C1155   1.396       .  A
C1154      H1159   1.084       .  S
C1155      C1156   1.410       .  A
C1161      C1162   1.404       .  A
C1161      C1166   1.395       .  A
C1161      H1588   1.083   1_554  S
C1162      C1163   1.424       .  A
C1163      C1164   1.395       .  A
C1163     Br1170   1.930       .  S
C1164      C1165   1.399       .  A
C1164      H1169   1.081       .  S
C1165      C1166   1.408       .  A
C1166     Br1167   1.911       .  S
H1168      C1581   1.083       .  S
C1171      C1172   1.399       .  A
C1171      C1176   1.402       .  A
C1171      H1178   1.084       .  S
C1173      C1174   1.398       .  A
C1173     Br1180   1.921   1_545  S
C1174      H1179   1.084   1_545  S
C1175      C1176   1.417       .  A
C1176     Br1177   1.915       .  S
C1181      C1182   1.401       .  A
C1181      C1186   1.387       .  A
C1181      H1188   1.084       .  S
C1182      C1183   1.401       .  A
C1183      C1184   1.402       .  A
C1183     Br1190   1.922       .  S
C1184      C1185   1.424       .  A
C1184      H1189   1.078       .  S
C1185      C1186   1.415       .  A
C1186     Br1607   1.923       .  S
Br1187     C1606   1.926       .  S
C1191      C1192   1.409       .  A
C1191      C1196   1.405       .  A
C1191      H1198   1.083       .  S
C1192      C1193   1.415       .  A
C1193      C1194   1.409       .  A
C1193     Br1200   1.922       .  S
C1194      C1195   1.416       .  A
C1194      H1199   1.082       .  S
C1195      C1196   1.422       .  A
C1196     Br1197   1.919       .  S
C1201      C1202   1.415       .  A
C1201      C1206   1.402       .  A
C1201      H1208   1.083       .  S
C1202      C1203   1.408       .  A
C1203      C1204   1.404       .  A
C1203     Br2890   1.922   1_455  S
C1204      C1205   1.422       .  A
C1204      H1209   1.071       .  S
C1205      C1206   1.416       .  A
C1206     Br1207   1.925       .  S
Br1210     C2883   1.922       .  S
C1211      C1632   1.408   1_554  A
C1211      C1216   1.398       .  A
C1211      H1218   1.080       .  S
C1212      C1631   1.408       .  A
C1212      C1213   1.416       .  A
C1213      C1214   1.393       .  A
C1213     Br1220   1.928       .  S
C1214      C1635   1.403       .  A
C1214      H1219   1.085       .  S
C1215      C1634   1.403       .  A
C1215      C1216   1.405       .  A
C1216     Br1217   1.909       .  S
C1221      C1222   1.397       .  A
C1221      C1226   1.407       .  A
C1221      H1228   1.084       .  S
C1222      C2903   1.423       .  A
C1223      C2902   1.423   1_455  A
C1223      C1224   1.412       .  A
C1223     Br1230   1.916       .  S
C1224      C2905   1.402   1_455  A
C1224      H1229   1.083       .  S
C1225      C2904   1.402       .  A
C1225      C1226   1.429       .  A
C1226     Br1227   1.921       .  S
C1231      C2912   1.415       .  A
C1231      C1236   1.389       .  A
C1231      H1238   1.080       .  S
C1232      C2911   1.414       .  A
C1232      C1233   1.430       .  A
C1233      C1234   1.401       .  A
C1233     Br1240   1.914       .  S
C1234      C1235   1.395       .  A
C1234      H1239   1.082       .  S
C1235      C2916   1.400       .  A
C1236      C2915   1.400   1_655  A
C1236     Br1237   1.920       .  S
C1241      C1242   1.403       .  A
C1241      C1246   1.413       .  A
C1241      H1248   1.083       .  S
C1242      C1243   1.426       .  A
C1243      C1244   1.414       .  A
C1243     Br1250   1.920       .  S
C1244      C1245   1.403       .  A
C1244      H1249   1.083       .  S
C1245      C1246   1.425       .  A
C1246     Br1247   1.921       .  S
C1251      C1252   1.415       .  A
C1251      C1256   1.402       .  A
C1251      H1258   1.084       .  S
C1252      C1253   1.400       .  A
C1253      C1254   1.395       .  A
C1253     Br1260   1.914       .  S
C1254      C1255   1.415       .  A
C1254      H1259   1.084       .  S
C1255      C1256   1.403       .  A
C1256     Br1257   1.911       .  S
C1261      C1262   1.546       .  S
C1261      C2947   1.506       .  S
C1261      C1265   1.536       .  S
C1261      C1652   1.527       .  S
C1262      H1269   1.086       .  S
C1262      C1263   1.369       .  D
C1263      C2944   1.567       .  S
C1263      C1662   1.519       .  S
C1264      C2943   1.567       .  S
C1264      C1268   1.555   1_655  S
C1264      C2946   1.577       .  S
C1264      H1270   1.109       .  S
C1265      H1271   1.083       .  S
C1265      C1266   1.371       .  D
C1266      C2944   1.577       .  S
C1266      C1642   1.511       .  S
C1267      C2941   1.505   1_455  S
C1267      H1272   1.090       .  S
C1267      C1268   1.344       .  D
C1268      C1672   1.482       .  S
O1273     Eu1309   2.485       .  S
O1273      C2964   1.293       .  A
O1274      C1285   1.298       .  A
O1275      C1286   1.291       .  A
O1276     Eu1281   2.470       .  S
O1276      C1287   1.292       .  A
O1277      C1287   1.279       .  A
O1278     Eu1310   2.422       .  S
O1278      C1286   1.285       .  A
O1279      C1285   1.282       .  A
O1280     Eu1281   2.373       .  S
O1280      C1284   1.277       .  A
Eu1281     O1291   2.341       .  S
Eu1281     O1282   2.337       .  S
O1283     Eu2149   2.352   1_565  S
O1283     Eu1310   2.336       .  S
C1284      O2953   1.294       .  A
C1284      C1655   1.448       .  S
C1285      C1572   1.480       .  S
C1286      C1555   1.459       .  S
C1287      C1602   1.453       .  S
H1288      O1289   0.966       .  S
O1289     Eu1310   2.354       .  S
H1290      O1291   0.965       .  S
O1291     Eu2989   2.337       .  S
O1292     Eu1308   2.474       .  S
O1292      C1315   1.292       .  A
O1293     Eu1309   2.479       .  S
O1294     Eu1310   2.517       .  S
O1294      C1317   1.300       .  A
O1295     Eu1311   2.508       .  S
O1295      C1318   1.299       .  A
O1296     Eu1311   2.524       .  S
O1296      C2579   1.301       .  A
O1297     Eu2990   2.546       .  S
O1297      C1320   1.305       .  A
O1298     Eu1312   2.529       .  S
O1298      C1321   1.302       .  A
O1299      C3002   1.311   1_455  A
O1300     Eu2990   2.380       .  S
O1301     Eu1311   2.422       .  S
O1301      C1322   1.284       .  A
O1302      C1317   1.290       .  A
O1303      C1320   1.284       .  A
O1304     Eu1309   2.421       .  S
O1304      C1319   1.286       .  A
O1305     Eu1308   2.403       .  S
O1306     Eu2992   2.393       .  S
O1306      C1315   1.282       .  A
O1307     Eu1312   2.411       .  S
Eu1308     O1326   2.360       .  S
Eu1309     O2123   2.352       .  S
Eu1309     O2971   2.336   1_455  S
Eu1310     O2977   2.546       .  S
Eu1310     O2980   2.380       .  S
Eu1310     O3004   2.344       .  S
Eu1310     O1314   2.368   1_556  S
Eu1311     O2993   2.360       .  S
Eu1312     O2986   2.393   1_455  S
Eu1312     O3006   2.338   1_455  S
Eu1312     O2574   2.371   1_455  S
O1313     Eu2991   2.360   1_455  S
O1314     Eu2572   2.370       .  S
C1315      C1542   1.457       .  S
C1316      C1582   1.482       .  S
C1317      C1612   1.510       .  S
C1318      C1592   1.469       .  S
C1319      O2556   1.298   1_456  A
C1319      C1622   1.502       .  S
C1320      C1562   1.491       .  S
C1321      C1635   1.473       .  S
C1322      O2979   1.312       .  A
C1322      C1645   1.516       .  S
H1323      O1324   0.965       .  S
O1324     Eu2990   2.344       .  S
H1325      O1326   0.965       .  S
O1326     Eu2992   2.337       .  S
C1327      C1328   1.513       .  S
C1327      C1333   1.529       .  S
C1327      C1331   1.550       .  S
C1327      C1532   1.517       .  S
C1328      H1335   1.089       .  S
C1328      C1329   1.354       .  D
C1329      C1585   1.466       .  S
C1330      C1332   1.550       .  S
C1330      H1336   1.110       .  S
C1331      H1337   1.081       .  S
C1332      C1522   1.500       .  S
C1333      H1338   1.087       .  S
C1333      C1334   1.357       .  D
C1334      C1595   1.474       .  S
O1339     Eu1375   2.541       .  S
O1339      C1350   1.304       .  A
O1340     Eu1374   2.486       .  S
O1340      C1351   1.293       .  A
O1341     Eu1347   2.488       .  S
O1341      C1352   1.294       .  A
O1342     Eu1347   2.448       .  S
O1342      C1353   1.288       .  A
O1343     Eu1377   2.434       .  S
O1343      C1353   1.288       .  A
O1344     Eu1376   2.425       .  S
O1344      C1352   1.285       .  A
O1345     Eu1347   2.424       .  S
O1345      C1351   1.285       .  A
O1346     Eu1347   2.331       .  S
O1346      C1350   1.271       .  A
Eu1347     O1357   2.360       .  S
Eu1347     O1349   2.344       .  S
Eu1347     O1348   2.339       .  S
Eu1347     O1355   2.321       .  S
O1348     Eu1377   2.364       .  S
O1348     Eu1374   2.348       .  S
O1349     Eu1375   2.356       .  S
O1349     Eu1376   2.323       .  S
C1350      C1675   1.476       .  S
C1351      C1455   1.479       .  S
C1352      C1512   1.476       .  S
C1353      C1535   1.447       .  S
H1354      O1355   0.966       .  S
O1355     Eu1376   2.352       .  S
O1355     Eu1374   2.359       .  S
H1356      O1357   0.964       .  S
O1357     Eu1375   2.330       .  S
O1357     Eu1377   2.352       .  S
O1358     Eu1374   2.465       .  S
O1358      C1381   1.290       .  A
O1359     Eu1375   2.510       .  S
O1359      C1382   1.300       .  A
O1360     Eu1376   2.515       .  S
O1360      C1383   1.299       .  A
O1361     Eu1377   2.531       .  S
O1361      C1384   1.303       .  A
O1362     Eu1377   2.516       .  S
O1362      C1385   1.300       .  A
O1363     Eu1376   2.553       .  S
O1363      C1386   1.306       .  A
O1364     Eu1378   2.570       .  S
O1364      C1387   1.310       .  A
O1365     Eu1378   2.565       .  S
O1365      C1388   1.310       .  A
O1366     Eu1376   2.342       .  S
O1366      C1387   1.269       .  A
O1367     Eu1377   2.449       .  S
O1367      C1388   1.290       .  A
O1368     Eu1374   2.428       .  S
O1368      C1383   1.285       .  A
O1369     Eu1375   2.415       .  S
O1369      C1386   1.284       .  A
O1370     Eu1375   2.433       .  S
O1370      C1385   1.288       .  A
O1371     Eu1374   2.415       .  S
O1371      C1384   1.283       .  A
O1372     Eu1378   2.401       .  S
O1372      C1381   1.283       .  A
O1373     Eu1378   2.450       .  S
O1373      C1382   1.291       .  A
Eu1374     O1392   2.360       .  S
Eu1374     O1380   2.360       .  S
Eu1375     O1379   2.375       .  S
Eu1375     O1390   2.346       .  S
Eu1376     O1390   2.344       .  S
Eu1376     O1380   2.367       .  S
Eu1377     O1379   2.373       .  S
Eu1377     O1392   2.354       .  S
Eu1378     O1379   2.370       .  S
Eu1378     O1390   2.352       .  S
Eu1378     O1392   2.366       .  S
Eu1378     O1380   2.361       .  S
C1381      C1502   1.447       .  S
C1382      C1465   1.498       .  S
C1383      C1525   1.483       .  S
C1384      C1472   1.481       .  S
C1385      C1495   1.507       .  S
C1386      C1445   1.492       .  S
C1387      C1482   1.491       .  S
C1388      C1665   1.515       .  S
H1389      O1390   0.964       .  S
H1391      O1392   0.966       .  S
C1393      C1399   1.545       .  S
C1393      C1397   1.540       .  S
C1393      C1625   1.548       .  S
C1394      H1401   1.087       .  S
C1394      C1395   1.371       .  D
C1395      C1452   1.492       .  S
C1396      C1400   1.555       .  S
C1396      C1398   1.548       .  S
C1396      H1402   1.108       .  S
C1397      H1403   1.073       .  S
C1397      C1398   1.364       .  D
C1398      C1632   1.498       .  S
C1399      H1404   1.085       .  S
C1399      C1400   1.369       .  D
C1400      C1442   1.514       .  S
C1405      C1406   1.533       .  S
C1405      C1411   1.546       .  S
C1405      C1409   1.544       .  S
C1405      C1552   1.535       .  S
C1406      H3093   1.086       .  S
C1406      C1407   1.360       .  D
C1407      C1408   1.537       .  S
C1407      C3195   1.484       .  S
C1408      C1412   1.534       .  S
C1408      C1410   1.537       .  S
C1408      H1414   1.110       .  S
C1409      H1415   1.084       .  S
C1409      C1410   1.372       .  D
C1410      C1545   1.491       .  S
C1411      H1416   1.081       .  S
C1411      C1412   1.366       .  D
C1412      C1505   1.481       .  S
H1413      C3086   1.086       .  S
C1417      C1418   1.519       .  S
C1417      C1423   1.528       .  S
C1417      C1421   1.537       .  S
C1417      C1605   1.522       .  S
C1418      H1425   1.086       .  S
C1418      C1419   1.351       .  D
C1419      C1420   1.560       .  S
C1419      C1462   1.488       .  S
C1420      C1424   1.564   1_556  S
C1420      C1422   1.568       .  S
C1420      H1426   1.105       .  S
C1421      H1427   1.082       .  S
C1421      C1422   1.376       .  D
C1422      C1615   1.520       .  S
C1423      C1424   1.358   1_556  D
C1429      C1430   1.535       .  S
C1429      C1435   1.545       .  S
C1429      C1492   1.555       .  S
C1430      H1437   1.087       .  S
C1431      C1432   1.553   1_545  S
C1431      C1575   1.489   1_545  S
C1432      C1436   1.561       .  S
C1432      C1434   1.535       .  S
C1432      H1438   1.107       .  S
C1433      H1439   1.079       .  S
C1433      C1434   1.366       .  D
C1434      C1485   1.485       .  S
C1435      H1440   1.086       .  S
C1436      C1565   1.523       .  S
C1441      C1442   1.413       .  A
C1441      C1446   1.414       .  A
C1441      H1448   1.083       .  S
C1442      C1443   1.413       .  A
C1443      C1444   1.406       .  A
C1443     Br1450   1.909       .  S
C1444      C1445   1.405       .  A
C1444      H1449   1.084       .  S
C1445      C1446   1.409       .  A
C1446     Br1447   1.917       .  S
C1451      C1452   1.403       .  A
C1451      C1456   1.391       .  A
C1451      H1458   1.080       .  S
C1452      C1453   1.412       .  A
C1453      C1454   1.408       .  A
C1453     Br1460   1.913       .  S
C1454      C1455   1.406       .  A
C1454      H1459   1.083       .  S
C1455      C1456   1.409       .  A
C1456     Br1457   1.924       .  S
C1461      C1462   1.396       .  A
C1461      C1466   1.403       .  A
C1461      H1468   1.084       .  S
C1462      C1463   1.417       .  A
C1463      C1464   1.404       .  A
C1463     Br1470   1.919       .  S
C1464      C1465   1.403       .  A
C1464      H1469   1.083       .  S
C1465      C1466   1.420       .  A
C1466     Br1467   1.906       .  S
C1471      C1472   1.404       .  A
C1471      C1476   1.404       .  A
C1471      H1478   1.084       .  S
C1472      C1473   1.410       .  A
C1473      C1474   1.404       .  A
C1473     Br1480   1.910       .  S
C1474      C1475   1.401       .  A
C1474      H1479   1.084       .  S
C1475      C1476   1.413       .  A
C1476     Br1477   1.921       .  S
C1481      C1482   1.401       .  A
C1481      C1486   1.407       .  A
C1481      H1488   1.073       .  S
C1482      C1483   1.430       .  A
C1483      C1484   1.382       .  A
C1483     Br1490   1.925       .  S
C1484      C1485   1.391       .  A
C1484      H1489   1.085       .  S
C1485      C1486   1.414       .  A
C1486     Br1487   1.908       .  S
C1491      C1492   1.422       .  A
C1491      C1496   1.409       .  A
C1491      H1498   1.073       .  S
C1492      C1493   1.416       .  A
C1493      C1494   1.401       .  A
C1493     Br1500   1.924       .  S
C1494      C1495   1.412       .  A
C1494      H1499   1.083       .  S
C1495      C1496   1.413       .  A
C1496     Br1497   1.923       .  S
C1501      C1502   1.402       .  A
C1501      C1506   1.396       .  A
C1501      H1508   1.084       .  S
C1502      C1503   1.400       .  A
C1503      C1504   1.393       .  A
C1503     Br1510   1.923       .  S
C1504      C1505   1.412       .  A
C1504      H1509   1.083       .  S
C1505      C1506   1.403       .  A
C1506     Br1507   1.912       .  S
C1511      C1512   1.403       .  A
C1511      C1516   1.403       .  A
C1511      H1518   1.084       .  S
C1512      C1513   1.410       .  A
C1513      C1514   1.403       .  A
C1513     Br1520   1.922       .  S
C1514      C1515   1.403       .  A
C1514      H1519   1.084       .  S
C1515      C3087   1.484       .  S
C1515      C1516   1.409       .  A
C1516     Br1517   1.915       .  S
C1521      C1522   1.407       .  A
C1521      C1526   1.402       .  A
C1521      H1528   1.080       .  S
C1522      C1523   1.417       .  A
C1523      C1524   1.403       .  A
C1523     Br1530   1.921       .  S
C1524      C1525   1.401       .  A
C1524      H1529   1.081       .  S
C1525      C1526   1.410       .  A
C1526     Br1527   1.921       .  S
C1531      C1532   1.410       .  A
C1531      C1536   1.397       .  A
C1531      H1538   1.077       .  S
C1532      C1533   1.425       .  A
C1533      C1534   1.383       .  A
C1533     Br1540   1.923       .  S
C1534      C1535   1.383       .  A
C1534      H1539   1.082       .  S
C1535      C1536   1.403       .  A
C1536     Br1537   1.919       .  S
C1541      C1542   1.404       .  A
C1541      C1546   1.391       .  A
C1541      H1548   1.085       .  S
C1542      C1543   1.393       .  A
C1543      C1544   1.394       .  A
C1543     Br1550   1.919       .  S
C1544      C1545   1.417       .  A
C1544      H1549   1.076       .  S
C1545      C1546   1.412       .  A
C1546     Br3227   1.922       .  S
Br1547     C3226   1.922       .  S
C1551      C1552   1.415       .  A
C1551      C1556   1.393       .  A
C1551      H1558   1.074       .  S
C1552      C1553   1.422       .  A
C1553      C1554   1.399       .  A
C1553     Br3240   1.922       .  S
C1554      C1555   1.397       .  A
C1554      H3239   1.084       .  S
C1555      C1556   1.399       .  A
C1556     Br1557   1.921       .  S
H1559      C3234   1.084   1_455  S
Br1560     C3233   1.922   1_455  S
C1561      C1562   1.402       .  A
C1561      C1566   1.408       .  A
C1562      C1563   1.408       .  A
C1563      C1564   1.414       .  A
C1563     Br1570   1.916       .  S
C1564      C1565   1.416       .  A
C1564      H1569   1.083       .  S
C1565      C1566   1.419       .  A
C1571      C1572   1.403       .  A
C1571      C1576   1.406       .  A
C1571      H1578   1.084       .  S
C1572      C1573   1.414       .  A
C1573      C1574   1.392       .  A
C1573     Br1580   1.920       .  S
C1574      C1575   1.398       .  A
C1574      H1579   1.084       .  S
C1575      C1576   1.408       .  A
C1581      C1582   1.403       .  A
C1581      C1586   1.393       .  A
C1582      C1583   1.422       .  A
C1583      C1584   1.391       .  A
C1583     Br1590   1.929       .  S
C1584      C1585   1.396       .  A
C1584      H1589   1.079       .  S
C1585      C1586   1.410       .  A
C1586     Br1587   1.914       .  S
C1591      C1592   1.400       .  A
C1591      C1596   1.400       .  A
C1591      H1598   1.084       .  S
C1593      C1594   1.396       .  A
C1593     Br1600   1.918   1_545  S
C1594      H1599   1.084   1_545  S
C1595      C1596   1.412       .  A
C1596     Br1597   1.912       .  S
C1601      C1602   1.403       .  A
C1601      C1606   1.388       .  A
C1601      H1608   1.085       .  S
C1602      C1603   1.393       .  A
C1603      C1604   1.391       .  A
C1603     Br1610   1.923       .  S
C1604      C1605   1.422       .  A
C1604      H1609   1.079       .  S
C1605      C1606   1.415       .  A
C1611      C1612   1.412       .  A
C1611      C1616   1.406       .  A
C1611      H1618   1.083   1_556  S
C1612      C1613   1.414       .  A
C1613      C1614   1.408       .  A
C1613     Br1620   1.922       .  S
C1614      C1615   1.416       .  A
C1614      H1619   1.082       .  S
C1615      C1616   1.418       .  A
C1616     Br1617   1.918   1_556  S
C1621      C1622   1.412       .  A
C1621      C1626   1.396       .  A
C1621      H1628   1.083       .  S
C1622      C1623   1.410   1_556  A
C1623      C1624   1.406       .  A
C1623     Br3310   1.922   1_455  S
C1624      C1625   1.422   1_554  A
C1624      H1629   1.076       .  S
C1625      C1626   1.414       .  A
C1626     Br1627   1.924       .  S
Br1630     C3303   1.922       .  S
C1631      C1636   1.402       .  A
C1631      H1638   1.082       .  S
C1632      C1633   1.421       .  A
C1633      C1634   1.394   1_556  A
C1633     Br1640   1.928       .  S
C1634      H1639   1.086       .  S
C1635      C1636   1.408       .  A
C1636     Br1637   1.909       .  S
C1641      C1642   1.397       .  A
C1641      C1646   1.408       .  A
C1641      H1648   1.084       .  S
C1642      C3323   1.422       .  A
C1643      C3322   1.422   1_455  A
C1643      C1644   1.416       .  A
C1643     Br1650   1.917       .  S
C1644      C3325   1.406   1_455  A
C1644      H1649   1.083       .  S
C1645      C3324   1.406       .  A
C1645      C1646   1.429       .  A
C1646     Br1647   1.921       .  S
C1651      C3332   1.417       .  A
C1651      C1656   1.388       .  A
C1651      H1658   1.080       .  S
C1652      C3331   1.417       .  A
C1652      C1653   1.429       .  A
C1653      C1654   1.400       .  A
C1653     Br1660   1.916       .  S
C1654      C1655   1.395       .  A
C1654      H1659   1.083       .  S
C1655      C3336   1.397       .  A
C1656      C3335   1.397   1_655  A
C1656     Br1657   1.920       .  S
C1661      C1662   1.403       .  A
C1661      C1666   1.413       .  A
C1661      H1668   1.083       .  S
C1662      C1663   1.425       .  A
C1663      C1664   1.415       .  A
C1663     Br1670   1.920       .  S
C1664      C1665   1.404       .  A
C1664      H1669   1.083       .  S
C1665      C1666   1.424       .  A
C1666     Br1667   1.920       .  S
C1671      C1672   1.420       .  A
C1671      C1676   1.400       .  A
C1671      H1678   1.084       .  S
C1672      C1673   1.397       .  A
C1673      C1674   1.392       .  A
C1673     Br1680   1.915       .  S
C1674      C1675   1.416       .  A
C1674      H1679   1.084       .  S
C1675      C1676   1.400       .  A
C1676     Br1677   1.917       .  S
C1681      C1682   1.545       .  S
C1681      C1685   1.532       .  S
C1681      C2072   1.532       .  S
C1682      H1689   1.085       .  S
C1682      C1683   1.371       .  D
C1683      C2082   1.522       .  S
C1684      C1688   1.553       .  S
C1684      H1690   1.110       .  S
C1685      H1691   1.080       .  S
C1685      C1686   1.367       .  D
C1686      C2062   1.509       .  S
C1687      H1692   1.090       .  S
C1687      C1688   1.348       .  D
C1688      C2092   1.482       .  S
O1693     Eu1729   2.513       .  S
O1694     Eu2148   2.492       .  S
O1694      C1705   1.295       .  A
O1695     Eu2541   2.466       .  S
O1695      C1706   1.291       .  A
O1696     Eu1701   2.477       .  S
O1696      C1707   1.292       .  A
O1697     Eu2151   2.412       .  S
O1697      C1707   1.285       .  A
O1698     Eu1730   2.428   1_655  S
O1698      C1706   1.286       .  A
O1699     Eu2541   2.384       .  S
O1699      C1705   1.277       .  A
O1700     Eu1701   2.347       .  S
O1700      C1704   1.273   1_655  A
Eu1701     O2535   2.465   1_545  S
Eu1701     O2539   2.388   1_545  S
Eu1701     O1711   2.345       .  S
Eu1701     O2543   2.345   1_645  S
Eu1701     O1702   2.323       .  S
Eu1701     O2549   2.337   1_545  S
O1702     Eu2151   2.355       .  S
O1702     Eu2988   2.352   1_545  S
O1703     Eu2541   2.344   1_455  S
O1703     Eu1730   2.334       .  S
C1704      C2075   1.452       .  S
C1705      C1992   1.475       .  S
C1706      C1975   1.459       .  S
C1707      C2022   1.472       .  S
H1708      O1709   0.966       .  S
O1709     Eu2541   2.336       .  S
O1709     Eu1730   2.356   1_655  S
O1709     Eu2148   2.348       .  S
H1710      O1711   0.966       .  S
O1711     Eu2151   2.342       .  S
O1712     Eu1728   2.500       .  S
O1712      C1735   1.297       .  A
O1713     Eu1729   2.486       .  S
O1713      C2156   1.297   1_545  A
O1714     Eu1730   2.508   1_655  S
O1714      C1737   1.299       .  A
O1715     Eu1731   2.513       .  S
O1715      C1738   1.300       .  A
O1716     Eu1731   2.507       .  S
O1717      C1740   1.304       .  A
O1718     Eu1732   2.519       .  S
O1718      C1741   1.300       .  A
O1719     Eu2572   2.577   1_545  S
O1720      C2161   1.281       .  A
O1721     Eu1731   2.406       .  S
O1721      C1742   1.281       .  A
O1722     Eu2148   2.448       .  S
O1722      C1737   1.291       .  A
O1723     Eu2569   2.408       .  S
O1723      C1740   1.282       .  A
O1724     Eu1729   2.402       .  S
O1724      C1739   1.283       .  A
O1725     Eu1728   2.401       .  S
O1725      C2578   1.282       .  A
O1726      C1735   1.279       .  A
O1727     Eu1732   2.416       .  S
O1727      C2576   1.282       .  A
Eu1728     O2114   2.507   1_554  S
Eu1728     O2142   2.445   1_554  S
Eu1728     O2962   2.355   1_554  S
Eu1728     O2129   2.355   1_554  S
Eu1728     O1746   2.356       .  S
Eu1728     O2154   2.349       .  S
Eu1729     O2563   2.405   1_545  S
Eu1729     O2153   2.371       .  S
Eu1729     O2584   2.340   1_545  S
Eu1730     O1734   2.375   1_455  S
Eu1731     O2117   2.379   1_554  S
Eu1731     O2122   2.354   1_554  S
Eu1731     O2131   2.340   1_554  S
Eu1731     O2586   2.331   1_545  S
Eu1732     O2559   2.576       .  S
Eu1732     O2573   2.354       .  S
Eu1732     O2164   2.355   1_554  S
O1733     Eu2149   2.370   1_554  S
O1733     Eu2572   2.353   1_545  S
O1734     Eu2148   2.354       .  S
C1735      C1962   1.461       .  S
C1736      O2133   1.295   1_564  A
C1736      O2567   1.282       .  A
C1736      C2002   1.487       .  S
C1737      C2032   1.509       .  S
C1738      O2565   1.282   1_545  A
C1738      C2012   1.476       .  S
C1739      C2042   1.503       .  S
C1740      C1982   1.485       .  S
C1741      O2140   1.280   1_554  A
C1741      C2055   1.467       .  S
C1742      C2065   1.511       .  S
H1743      O1744   0.965       .  S
O1744     Eu2569   2.341       .  S
O1744     Eu2152   2.359       .  S
H1745      O1746   0.965       .  S
O1746     Eu2571   2.331       .  S
C1747      C1748   1.511       .  S
C1747      C1753   1.531       .  S
C1747      C1751   1.553       .  S
C1747      C1952   1.519       .  S
C1748      H1755   1.089       .  S
C1748      C1749   1.352       .  D
C1749      C2590   1.546       .  S
C1749      C2005   1.471   1_545  S
C1750      C2589   1.547       .  S
C1750      C2594   1.552       .  S
C1750      C1752   1.549       .  S
C1750      H1756   1.110       .  S
C1751      H1757   1.080       .  S
C1751      C2592   1.375   1_545  D
C1752      C2591   1.374       .  D
C1752      C1942   1.500       .  S
C1753      H1758   1.087       .  S
C1753      C1754   1.360       .  D
C1754      C2590   1.552       .  S
C1754      C2015   1.487       .  S
O1759     Eu1795   2.549       .  S
O1759      C1770   1.306       .  A
O1760     Eu1794   2.496       .  S
O1760      C1771   1.295       .  A
O1761     Eu1767   2.463       .  S
O1761      C1772   1.290       .  A
O1762     Eu1767   2.437       .  S
O1762      C1773   1.285       .  A
O1763     Eu1797   2.429       .  S
O1763      C1773   1.287       .  A
O1764     Eu1796   2.423       .  S
O1764      C1772   1.285       .  A
O1765     Eu1767   2.429       .  S
O1765      C1771   1.285       .  A
O1766     Eu1767   2.344       .  S
O1766      C1770   1.273       .  A
Eu1767     O1777   2.362       .  S
Eu1767     O1769   2.345       .  S
Eu1767     O1768   2.331       .  S
Eu1767     O1775   2.333       .  S
O1768     Eu1797   2.360       .  S
O1768     Eu1794   2.346       .  S
O1769     Eu1795   2.356       .  S
O1769     Eu1796   2.333       .  S
C1770      C2095   1.481       .  S
C1771      C1875   1.484       .  S
C1772      C1932   1.460       .  S
C1773      C1955   1.444       .  S
H1774      O1775   0.966       .  S
O1775     Eu1796   2.361       .  S
O1775     Eu1794   2.357       .  S
H1776      O1777   0.965       .  S
O1777     Eu1795   2.337       .  S
O1777     Eu1797   2.349       .  S
O1778     Eu1794   2.455       .  S
O1778      C1801   1.288       .  A
O1779     Eu1795   2.510       .  S
O1779      C1802   1.300       .  A
O1780     Eu1796   2.503       .  S
O1780      C1803   1.297       .  A
O1781     Eu1797   2.553       .  S
O1781      C1804   1.307       .  A
O1782     Eu1797   2.546       .  S
O1782      C1805   1.306       .  A
O1783     Eu1796   2.544       .  S
O1783      C1806   1.304       .  A
O1784     Eu1798   2.570       .  S
O1784      C1807   1.309       .  A
O1785     Eu1798   2.569       .  S
O1785      C1808   1.311       .  A
O1786     Eu1796   2.359       .  S
O1786      C1807   1.269       .  A
O1787     Eu1797   2.433       .  S
O1787      C1808   1.288       .  A
O1788     Eu1794   2.440       .  S
O1788      C1803   1.288       .  A
O1789     Eu1795   2.417       .  S
O1789      C1806   1.284       .  A
O1790     Eu1795   2.452       .  S
O1790      C1805   1.291       .  A
O1791     Eu1794   2.419       .  S
O1791      C1804   1.284       .  A
O1792     Eu1798   2.417       .  S
O1792      C1801   1.285       .  A
O1793     Eu1798   2.467       .  S
O1793      C1802   1.294       .  A
Eu1794     O1812   2.365       .  S
Eu1794     O1800   2.361       .  S
Eu1795     O1799   2.379       .  S
Eu1795     O1810   2.357       .  S
Eu1796     O1810   2.340       .  S
Eu1796     O1800   2.362       .  S
Eu1797     O1799   2.376       .  S
Eu1797     O1812   2.355       .  S
Eu1798     O1799   2.377       .  S
Eu1798     O1810   2.354       .  S
Eu1798     O1812   2.368       .  S
Eu1798     O1800   2.363       .  S
C1801      C1922   1.447       .  S
C1802      C1885   1.497       .  S
C1803      C1945   1.483       .  S
C1804      C1892   1.492       .  S
C1805      C1915   1.525       .  S
C1806      C1865   1.487       .  S
C1807      C1902   1.503       .  S
C1808      C2085   1.512       .  S
H1809      O1810   0.964       .  S
H1811      O1812   0.966       .  S
C1813      C2234   1.538       .  S
C1813      C1819   1.546       .  S
C1813      C1817   1.545       .  S
C1813      C2045   1.554       .  S
C1814      C2233   1.536       .  S
C1814      H1821   1.087   1_556  S
C1814      C1815   1.367       .  D
C1815      C2236   1.555       .  S
C1815      C1872   1.497   1_556  S
C1816      C2235   1.554       .  S
C1816      C1820   1.548       .  S
C1816      C1818   1.538       .  S
C1816      H1822   1.107       .  S
C1817      H1823   1.074       .  S
C1817      C1818   1.362       .  D
C1818      C2052   1.494       .  S
C1819      H1824   1.086       .  S
C1819      C1820   1.372       .  D
C1820      C1862   1.512       .  S
C1825      C1826   1.528       .  S
C1825      C1831   1.544       .  S
C1825      C1829   1.544       .  S
C1825      C1972   1.530       .  S
C1826      C1827   1.355   1_655  D
C1827      C1828   1.528   1_455  S
C1828      C1832   1.530       .  S
C1828      C1830   1.532       .  S
C1828      H1834   1.110       .  S
C1829      H1835   1.084       .  S
C1829      C1830   1.371       .  D
C1830      C1965   1.489       .  S
C1831      H1836   1.082       .  S
C1831      C1832   1.370       .  D
C1832      C1925   1.469       .  S
C1837      C1838   1.523       .  S
C1837      C1843   1.527       .  S
C1837      C1841   1.545       .  S
C1837      C2025   1.531       .  S
C1838      H1845   1.084       .  S
C1838      C1839   1.358       .  D
C1839      C1840   1.556       .  S
C1839      C1882   1.490       .  S
C1840      C1844   1.557       .  S
C1840      C1842   1.564       .  S
C1840      H1846   1.104       .  S
C1841      H1847   1.083       .  S
C1841      C1842   1.380       .  D
C1842      C2035   1.524       .  S
C1843      H2268   1.088       .  S
C1843      C1844   1.354       .  D
C1844      C2315   1.488       .  S
H1848      C2263   1.087   1_554  S
C1849      C1850   1.536       .  S
C1849      C1855   1.540       .  S
C1849      C2693   1.553   1_545  S
C1849      C1912   1.570       .  S
C1850      H1857   1.087       .  S
C1850      C2691   1.373       .  D
C1851      C1852   1.549       .  S
C1851      C2690   1.373       .  D
C1851      C1995   1.483       .  S
C1852      C1856   1.558       .  S
C1852      C1854   1.535       .  S
C1852      H1858   1.106       .  S
C1853      C2689   1.553       .  S
C1853      H1859   1.080       .  S
C1853      C1854   1.370       .  D
C1854      C1905   1.491       .  S
C1855      H1860   1.086       .  S
C1855      C2696   1.377   1_545  D
C1856      C2695   1.378       .  D
C1856      C1985   1.523       .  S
C1861      C1862   1.413       .  A
C1861      C1866   1.412       .  A
C1861      H1868   1.083       .  S
C1862      C1863   1.417       .  A
C1863      C1864   1.405       .  A
C1863     Br1870   1.912       .  S
C1864      C1865   1.403       .  A
C1864      H1869   1.084       .  S
C1865      C1866   1.407       .  A
C1866     Br1867   1.915       .  S
C1871      C1872   1.405       .  A
C1871      C1876   1.398       .  A
C1871      H1878   1.080       .  S
C1872      C1873   1.413       .  A
C1873      C1874   1.409       .  A
C1873     Br1880   1.914   1_554  S
C1874      C1875   1.405       .  A
C1874      H1879   1.081       .  S
C1875      C1876   1.410       .  A
C1876     Br1877   1.922       .  S
C1881      C1882   1.399       .  A
C1881      C1886   1.405       .  A
C1881      H1888   1.084       .  S
C1882      C1883   1.415       .  A
C1883      C1884   1.403       .  A
C1883     Br1890   1.919       .  S
C1884      C1885   1.403       .  A
C1884      H1889   1.083       .  S
C1885      C1886   1.418       .  A
C1886     Br1887   1.910       .  S
C1891      C1892   1.406       .  A
C1891      C1896   1.408       .  A
C1891      H1898   1.083       .  S
C1892      C1893   1.411       .  A
C1893      C1894   1.410       .  A
C1893     Br1900   1.914       .  S
C1894      C1895   1.405       .  A
C1894      H1899   1.083       .  S
C1895      C2264   1.497       .  S
C1895      C1896   1.414       .  A
C1896     Br1897   1.921       .  S
C1901      C1902   1.405       .  A
C1901      C1906   1.413       .  A
C1901      H1908   1.081       .  S
C1902      C1903   1.434       .  A
C1903      C1904   1.385       .  A
C1903     Br1910   1.930       .  S
C1904      C1905   1.388       .  A
C1904      H1909   1.085       .  S
C1905      C1906   1.418       .  A
C1906     Br1907   1.908       .  S
C1911      C1912   1.421       .  A
C1911      C1916   1.415       .  A
C1911      H1918   1.074       .  S
C1912      C1913   1.420       .  A
C1913      C1914   1.411       .  A
C1913     Br1920   1.924       .  S
C1914      C1915   1.415       .  A
C1914      H1919   1.083       .  S
C1915      C1916   1.416       .  A
C1916     Br1917   1.921       .  S
C1921      C1922   1.405       .  A
C1921      C1926   1.396       .  A
C1921      H1928   1.084       .  S
C1922      C1923   1.400       .  A
C1923      C1924   1.388       .  A
C1923     Br1930   1.920       .  S
C1924      C1925   1.407       .  A
C1924      H1929   1.084       .  S
C1925      C1926   1.401       .  A
C1926     Br1927   1.918       .  S
C1931      C1932   1.402       .  A
C1931      C1936   1.396       .  A
C1931      H1938   1.084       .  S
C1932      C1933   1.406       .  A
C1933      C1934   1.398       .  A
C1933     Br1940   1.919       .  S
C1934      C1935   1.402       .  A
C1934      H1939   1.084       .  S
C1935      C1936   1.406       .  A
C1936     Br1937   1.919       .  S
C1941      C1942   1.406       .  A
C1941      C1946   1.399       .  A
C1941      H1948   1.080       .  S
C1942      C1943   1.418       .  A
C1943      C1944   1.406       .  A
C1943     Br1950   1.921       .  S
C1944      C1945   1.403       .  A
C1944      H1949   1.083       .  S
C1945      C1946   1.409       .  A
C1946     Br1947   1.921       .  S
C1951      C1952   1.408       .  A
C1951      C1956   1.393       .  A
C1951      H1958   1.077       .  S
C1952      C1953   1.428       .  A
C1953      C1954   1.386       .  A
C1953     Br1960   1.920       .  S
C1954      C1955   1.385       .  A
C1954      H1959   1.083       .  S
C1955      C1956   1.401       .  A
C1956     Br1957   1.919       .  S
C1961      C1962   1.406       .  A
C1961      C1966   1.391       .  A
C1961      H1968   1.085       .  S
C1962      C1963   1.395       .  A
C1963      C1964   1.397       .  A
C1963     Br1970   1.918       .  S
C1964      C1965   1.417       .  A
C1964      H1969   1.078       .  S
C1965      C1966   1.410       .  A
C1971      C1972   1.413       .  A
C1971      C1976   1.395       .  A
C1971      H1978   1.075       .  S
C1972      C1973   1.423       .  A
C1973      C1974   1.397       .  A
C1974      C1975   1.396       .  A
C1975      C1976   1.400       .  A
C1976     Br1977   1.921       .  S
C1981      C1982   1.402       .  A
C1981      C1986   1.410       .  A
C1981      H2828   1.084       .  S
C1982      C1983   1.405       .  A
C1983      C1984   1.406       .  A
C1983     Br1990   1.915       .  S
C1984      C1985   1.414       .  A
C1984      H1989   1.083       .  S
C1985      C1986   1.423       .  A
C1986     Br2827   1.909       .  S
Br1987     C2826   1.909       .  S
H1988      C2821   1.084       .  S
C1991      C1992   1.403       .  A
C1991      C1996   1.405       .  A
C1991      H1998   1.084       .  S
C1992      C1993   1.417       .  A
C1993      C1994   1.385       .  A
C1993     Br2000   1.927       .  S
C1994      C1995   1.396       .  A
C1994      H1999   1.084       .  S
C1995      C1996   1.410       .  A
C1996     Br2837   1.901       .  S
Br1997     C2836   1.900       .  S
C2001      C2002   1.404   1_545  A
C2001      C2006   1.396       .  A
C2001      H2428   1.083   1_554  S
C2002      C2003   1.424       .  A
C2003      C2004   1.396       .  A
C2003     Br2010   1.930       .  S
C2004      C2005   1.398       .  A
C2004      H2009   1.081       .  S
C2005      C2006   1.408   1_565  A
C2006     Br2007   1.912       .  S
H2008      C2421   1.083       .  S
C2011      C2012   1.399       .  A
C2011      C2016   1.402       .  A
C2011      H2018   1.084       .  S
C2012      C2853   1.413       .  A
C2013      C2852   1.413       .  A
C2013      C2014   1.398       .  A
C2013     Br2020   1.921       .  S
C2014      C2855   1.400       .  A
C2014      H2019   1.084       .  S
C2015      C2854   1.400       .  A
C2015      C2016   1.417       .  A
C2016     Br2017   1.915       .  S
C2021      C2022   1.401       .  A
C2021      C2026   1.387       .  A
C2021      H2028   1.084       .  S
C2022      C2023   1.402       .  A
C2023      C2024   1.402       .  A
C2023     Br2030   1.922       .  S
C2024      C2025   1.424       .  A
C2024      H2029   1.078       .  S
C2025      C2026   1.415       .  A
C2026     Br2447   1.924       .  S
Br2027     C2446   1.926       .  S
C2031      C2032   1.409       .  A
C2031      C2036   1.404       .  A
C2031      H2038   1.083       .  S
C2032      C2033   1.415       .  A
C2033      C2034   1.410       .  A
C2033     Br2040   1.922       .  S
C2034      C2035   1.417       .  A
C2034      H2039   1.082       .  S
C2035      C2036   1.422       .  A
C2036     Br2037   1.919       .  S
C2041      C2042   1.415       .  A
C2041      C2046   1.402       .  A
C2041      H2048   1.083       .  S
C2042      C2043   1.408       .  A
C2043      C2044   1.404       .  A
C2044      C2045   1.421       .  A
C2044      H2049   1.071       .  S
C2045      C2046   1.416       .  A
C2046     Br2047   1.925       .  S
C2051      C2472   1.408   1_554  A
C2051      C2056   1.399       .  A
C2051      H2058   1.081       .  S
C2052      C2471   1.409       .  A
C2052      C2053   1.416       .  A
C2053      C2054   1.393       .  A
C2053     Br2060   1.928       .  S
C2054      C2475   1.404       .  A
C2054      H2059   1.085       .  S
C2055      C2474   1.404       .  A
C2055      C2056   1.405       .  A
C2056     Br2057   1.909       .  S
C2061      C2062   1.397       .  A
C2061      C2066   1.408       .  A
C2061      H2068   1.084       .  S
C2063      C2064   1.413       .  A
C2063     Br2070   1.917       .  S
C2064      H2069   1.083       .  S
C2065      C2066   1.428       .  A
C2066     Br2067   1.920       .  S
C2071      C2076   1.389       .  A
C2071      H2078   1.081       .  S
C2072      C2073   1.430   1_655  A
C2073      C2074   1.401       .  A
C2073     Br2080   1.915       .  S
C2074      C2075   1.395       .  A
C2074      H2079   1.083       .  S
C2076     Br2077   1.919       .  S
C2081      C2082   1.403       .  A
C2081      C2086   1.413       .  A
C2081      H2088   1.083       .  S
C2082      C2083   1.426       .  A
C2083      C2084   1.414       .  A
C2083     Br2090   1.919       .  S
C2084      C2085   1.402       .  A
C2084      H2089   1.083       .  S
C2085      C2086   1.425       .  A
C2086     Br2087   1.921       .  S
C2091      C2092   1.415       .  A
C2091      C2096   1.402       .  A
C2091      H2098   1.084       .  S
C2092      C2093   1.399       .  A
C2093      C2094   1.395       .  A
C2093     Br2100   1.914       .  S
C2094      C2095   1.415       .  A
C2094      H2099   1.084       .  S
C2095      C2096   1.403       .  A
C2096     Br2097   1.911       .  S
C2101      C2102   1.546       .  S
C2101      C2105   1.536       .  S
C2101      C2492   1.528       .  S
C2102      H2109   1.086       .  S
C2102      C2103   1.370       .  D
C2103      C2502   1.520       .  S
C2104      C2108   1.555       .  S
C2104      H2110   1.109       .  S
C2105      H2111   1.083       .  S
C2105      C2106   1.371       .  D
C2106      C2482   1.511       .  S
C2107      H2112   1.091       .  S
C2107      C2108   1.344       .  D
C2108      C2512   1.482       .  S
O2113     Eu2149   2.487       .  S
O2114      C2125   1.298       .  A
O2115     Eu2961   2.470       .  S
O2115      C2126   1.291       .  A
O2116     Eu2121   2.465       .  S
O2116      C2127   1.291       .  A
O2117      C2127   1.279       .  A
O2118     Eu2150   2.422   1_655  S
O2118      C2126   1.285       .  A
O2119     Eu2961   2.407       .  S
O2119      C2125   1.282       .  A
O2120     Eu2121   2.373       .  S
O2120      C2124   1.277   1_655  A
Eu2121     O2955   2.468   1_545  S
Eu2121     O2959   2.405   1_545  S
Eu2121     O2131   2.339       .  S
Eu2121     O2963   2.344   1_645  S
Eu2121     O2122   2.338       .  S
Eu2121     O2969   2.342   1_545  S
O2122     Eu2568   2.355   1_546  S
O2123     Eu2961   2.345   1_455  S
O2123     Eu2150   2.334       .  S
C2124      C2495   1.449       .  S
C2125      C2412   1.480       .  S
C2126      C2395   1.459       .  S
C2127      C2442   1.451       .  S
H2128      O2129   0.966       .  S
O2129     Eu2961   2.342       .  S
O2129     Eu2150   2.355   1_655  S
H2130      O2131   0.965       .  S
O2132     Eu2148   2.474       .  S
O2132      C2155   1.292       .  A
O2133     Eu2149   2.479       .  S
O2134     Eu2150   2.517   1_655  S
O2134      C2157   1.300       .  A
O2135     Eu2151   2.510       .  S
O2135      C2158   1.300       .  A
O2136     Eu2151   2.524   1_455  S
O2137      C2160   1.305       .  A
O2138     Eu2152   2.532       .  S
O2138      C2161   1.303       .  A
O2139     Eu2992   2.574   1_545  S
O2141     Eu2151   2.424       .  S
O2141      C2162   1.284       .  A
O2142      C2157   1.290       .  A
O2143     Eu2989   2.417       .  S
O2143      C2160   1.284       .  A
O2144     Eu2149   2.422       .  S
O2144      C2159   1.286       .  A
O2145     Eu2148   2.401       .  S
O2145      C2998   1.282       .  A
O2146      C2155   1.283       .  A
O2147     Eu2152   2.413       .  S
O2147      C2996   1.282       .  A
Eu2148     O2542   2.351       .  S
Eu2148     O2166   2.361       .  S
Eu2149     O2983   2.419   1_545  S
Eu2149     O3004   2.336   1_545  S
Eu2150     O2154   2.367   1_456  S
Eu2151     O3006   2.342   1_545  S
Eu2152     O2979   2.580       .  S
Eu2152     O2993   2.361       .  S
O2153     Eu2992   2.362   1_545  S
C2155      C2382   1.458       .  S
C2156      O2987   1.281       .  A
C2156      C2422   1.483       .  S
C2157      C2452   1.510       .  S
C2158      O2985   1.282   1_545  A
C2158      C2432   1.471       .  S
C2159      C2462   1.502       .  S
C2160      C2402   1.491       .  S
C2161      C2475   1.474       .  S
C2162      C2485   1.515       .  S
H2163      O2164   0.965       .  S
O2164     Eu2989   2.336       .  S
H2165      O2166   0.966       .  S
O2166     Eu2991   2.344       .  S
C2167      C2168   1.513       .  S
C2167      C2173   1.529       .  S
C2167      C2171   1.550       .  S
C2167      C2372   1.517       .  S
C2168      H2175   1.089       .  S
C2168      C2169   1.354       .  D
C2169      C3010   1.546   1_545  S
C2169      C2425   1.467   1_545  S
C2170      C3009   1.546       .  S
C2170      C3014   1.546       .  S
C2170      C2172   1.550       .  S
C2170      H2176   1.110       .  S
C2171      H2177   1.081       .  S
C2171      C3012   1.374   1_545  D
C2172      C3011   1.374       .  D
C2172      C2362   1.500       .  S
C2173      H2178   1.087       .  S
C2173      C2174   1.357       .  D
C2174      C3010   1.548   1_545  S
C2174      C2435   1.476       .  S
O2179     Eu2215   2.540       .  S
O2179      C2190   1.304       .  A
O2180     Eu2214   2.487       .  S
O2180      C2191   1.293       .  A
O2181     Eu2187   2.489       .  S
O2181      C2192   1.294       .  A
O2182     Eu2187   2.444       .  S
O2182      C2193   1.287       .  A
O2183     Eu2217   2.434       .  S
O2183      C2193   1.288       .  A
O2184     Eu2216   2.421       .  S
O2184      C2192   1.284       .  A
O2185     Eu2187   2.423       .  S
O2185      C2191   1.285       .  A
O2186     Eu2187   2.332       .  S
O2186      C2190   1.271       .  A
Eu2187     O2197   2.361       .  S
Eu2187     O2189   2.343       .  S
Eu2187     O2188   2.339       .  S
Eu2187     O2195   2.319       .  S
O2188     Eu2217   2.364       .  S
O2188     Eu2214   2.347       .  S
O2189     Eu2215   2.358       .  S
O2189     Eu2216   2.323       .  S
C2190      C2515   1.475       .  S
C2191      C2295   1.479       .  S
C2192      C2352   1.475       .  S
C2193      C2375   1.446       .  S
H2194      O2195   0.966       .  S
O2195     Eu2216   2.351       .  S
O2195     Eu2214   2.359       .  S
H2196      O2197   0.964       .  S
O2197     Eu2215   2.330       .  S
O2197     Eu2217   2.351       .  S
O2198     Eu2214   2.464       .  S
O2198      C2221   1.290       .  A
O2199     Eu2215   2.511       .  S
O2199      C2222   1.300       .  A
O2200     Eu2216   2.514       .  S
O2200      C2223   1.299       .  A
O2201     Eu2217   2.531       .  S
O2201      C2224   1.303       .  A
O2202     Eu2217   2.516       .  S
O2202      C2225   1.300       .  A
O2203     Eu2216   2.551       .  S
O2203      C2226   1.305       .  A
O2204     Eu2218   2.575       .  S
O2204      C2227   1.310       .  A
O2205     Eu2218   2.566       .  S
O2205      C2228   1.310       .  A
O2206     Eu2216   2.337       .  S
O2206      C2227   1.268       .  A
O2207     Eu2217   2.451       .  S
O2207      C2228   1.290       .  A
O2208     Eu2214   2.429       .  S
O2208      C2223   1.285       .  A
O2209     Eu2215   2.413       .  S
O2209      C2226   1.283       .  A
O2210     Eu2215   2.433       .  S
O2210      C2225   1.288       .  A
O2211     Eu2214   2.417       .  S
O2211      C2224   1.283       .  A
O2212     Eu2218   2.397       .  S
O2212      C2221   1.282       .  A
O2213     Eu2218   2.448       .  S
O2213      C2222   1.290       .  A
Eu2214     O2232   2.359       .  S
Eu2214     O2220   2.360       .  S
Eu2215     O2219   2.374       .  S
Eu2215     O2230   2.346       .  S
Eu2216     O2230   2.345       .  S
Eu2216     O2220   2.366       .  S
Eu2217     O2219   2.374       .  S
Eu2217     O2232   2.353       .  S
Eu2218     O2219   2.370       .  S
Eu2218     O2230   2.350       .  S
Eu2218     O2232   2.366       .  S
Eu2218     O2220   2.360       .  S
C2221      C2342   1.446       .  S
C2222      C2305   1.498       .  S
C2223      C2365   1.483       .  S
C2224      C2312   1.483       .  S
C2225      C2335   1.508       .  S
C2226      C2285   1.491       .  S
C2227      C2322   1.491       .  S
C2228      C2505   1.516       .  S
H2229      O2230   0.964       .  S
H2231      O2232   0.966       .  S
C2233      C2239   1.546       .  S
C2233      C2237   1.541       .  S
C2233      C2465   1.549       .  S
C2234      H2241   1.087       .  S
C2234      C2235   1.370       .  D
C2235      C2292   1.493       .  S
C2236      C2240   1.554       .  S
C2236      C2238   1.547       .  S
C2236      H2242   1.108       .  S
C2237      H2243   1.073       .  S
C2237      C2238   1.364       .  D
C2238      C2472   1.497       .  S
C2239      H2244   1.085       .  S
C2239      C2240   1.370       .  D
C2240      C2282   1.513       .  S
C2245      C2246   1.532   1_655  S
C2245      C2251   1.546       .  S
C2245      C2249   1.545       .  S
C2245      C2392   1.536       .  S
C2246      C2247   1.359       .  D
C2247      C2248   1.537   1_455  S
C2248      C2252   1.534       .  S
C2248      C2250   1.537       .  S
C2248      H2254   1.110       .  S
C2249      H2255   1.084       .  S
C2249      C2250   1.373       .  D
C2250      C2385   1.492       .  S
C2251      H2256   1.082       .  S
C2251      C2252   1.367       .  D
C2252      C2345   1.481       .  S
C2257      C2258   1.518       .  S
C2257      C2263   1.528       .  S
C2257      C2261   1.537       .  S
C2257      C2445   1.521       .  S
C2258      H2265   1.086       .  S
C2258      C2259   1.351       .  D
C2259      C2260   1.560       .  S
C2259      C2302   1.487       .  S
C2260      C2264   1.564   1_556  S
C2260      C2262   1.568       .  S
C2260      H2266   1.105       .  S
C2261      H2267   1.082       .  S
C2261      C2262   1.376       .  D
C2262      C2455   1.521       .  S
C2263      C2264   1.358   1_556  D
C2269      C2270   1.534       .  S
C2269      C2275   1.545       .  S
C2269      C3113   1.542   1_545  S
C2269      C2332   1.556       .  S
C2270      H2277   1.087       .  S
C2270      C3111   1.367       .  D
C2271      C2272   1.553       .  S
C2271      C3110   1.367       .  D
C2271      C2415   1.489       .  S
C2272      C2276   1.560       .  S
C2272      C2274   1.536       .  S
C2272      H2278   1.107       .  S
C2273      C3109   1.543       .  S
C2273      H2279   1.079       .  S
C2273      C2274   1.367       .  D
C2274      C2325   1.487       .  S
C2275      H2280   1.086       .  S
C2275      C3116   1.375   1_545  D
C2276      C3115   1.375       .  D
C2276      C2405   1.521       .  S
C2281      C2282   1.413       .  A
C2281      C2286   1.414       .  A
C2281      H2288   1.083       .  S
C2282      C2283   1.413       .  A
C2283      C2284   1.406       .  A
C2283     Br2290   1.909       .  S
C2284      C2285   1.405       .  A
C2284      H2289   1.085       .  S
C2285      C2286   1.409       .  A
C2286     Br2287   1.917       .  S
C2291      C2292   1.403       .  A
C2291      C2296   1.392       .  A
C2291      H2298   1.080       .  S
C2292      C2293   1.412       .  A
C2293      C2294   1.408       .  A
C2293     Br2300   1.913       .  S
C2294      C2295   1.406       .  A
C2294      H2299   1.083       .  S
C2295      C2296   1.410       .  A
C2296     Br2297   1.924       .  S
C2301      C2302   1.396       .  A
C2301      C2306   1.402       .  A
C2301      H2308   1.084       .  S
C2302      C2303   1.416       .  A
C2303      C2304   1.404       .  A
C2303     Br2310   1.919       .  S
C2304      C2305   1.403       .  A
C2304      H2309   1.083       .  S
C2305      C2306   1.420       .  A
C2306     Br2307   1.907       .  S
C2311      C2312   1.405       .  A
C2311      C2316   1.404       .  A
C2311      H2318   1.084       .  S
C2312      C2313   1.410       .  A
C2313      C2314   1.405       .  A
C2313     Br2320   1.910       .  S
C2314      C2315   1.402       .  A
C2314      H2319   1.084       .  S
C2315      C2316   1.413       .  A
C2316     Br2317   1.920       .  S
C2321      C2322   1.400       .  A
C2321      C2326   1.407       .  A
C2321      H2328   1.073       .  S
C2322      C2323   1.430       .  A
C2323      C2324   1.382       .  A
C2323     Br2330   1.925       .  S
C2324      C2325   1.391       .  A
C2324      H2329   1.085       .  S
C2325      C2326   1.415       .  A
C2326     Br2327   1.909       .  S
C2331      C2332   1.422       .  A
C2331      C2336   1.409       .  A
C2331      H2338   1.073       .  S
C2332      C2333   1.416       .  A
C2333      C2334   1.401       .  A
C2333     Br2340   1.924       .  S
C2334      C2335   1.412       .  A
C2334      H2339   1.083       .  S
C2335      C2336   1.413       .  A
C2336     Br2337   1.923       .  S
C2341      C2342   1.402       .  A
C2341      C2346   1.396       .  A
C2341      H2348   1.084       .  S
C2342      C2343   1.399       .  A
C2343      C2344   1.392       .  A
C2343     Br2350   1.924       .  S
C2344      C2345   1.412       .  A
C2344      H2349   1.083       .  S
C2345      C2346   1.404       .  A
C2346     Br2347   1.912       .  S
C2351      C2352   1.402       .  A
C2351      C2356   1.402       .  A
C2351      H2358   1.084       .  S
C2352      C2353   1.411       .  A
C2353      C2354   1.403       .  A
C2353     Br2360   1.922       .  S
C2354      C2355   1.404       .  A
C2354      H2359   1.084       .  S
C2355      C2356   1.409       .  A
C2356     Br2357   1.915       .  S
C2361      C2362   1.407       .  A
C2361      C2366   1.402       .  A
C2361      H2368   1.079       .  S
C2362      C2363   1.417       .  A
C2363      C2364   1.404       .  A
C2363     Br2370   1.921       .  S
C2364      C2365   1.402       .  A
C2364      H2369   1.081       .  S
C2365      C2366   1.409       .  A
C2366     Br2367   1.921       .  S
C2371      C2372   1.410       .  A
C2371      C2376   1.396       .  A
C2371      H2378   1.077       .  S
C2372      C2373   1.425       .  A
C2373      C2374   1.383       .  A
C2373     Br2380   1.923       .  S
C2374      C2375   1.384       .  A
C2374      H2379   1.082       .  S
C2375      C2376   1.403       .  A
C2376     Br2377   1.919       .  S
C2381      C2382   1.404       .  A
C2381      C2386   1.391       .  A
C2381      H2388   1.085       .  S
C2382      C2383   1.394       .  A
C2383      C2384   1.395       .  A
C2383     Br2390   1.919       .  S
C2384      C2385   1.417       .  A
C2384      H2389   1.076       .  S
C2385      C2386   1.412       .  A
C2391      C2392   1.415       .  A
C2391      C2396   1.394       .  A
C2391      H2398   1.075       .  S
C2392      C2393   1.422       .  A
C2393      C2394   1.399       .  A
C2394      C2395   1.396       .  A
C2395      C2396   1.400       .  A
C2396     Br2397   1.921       .  S
C2401      C2402   1.402       .  A
C2401      C2406   1.407       .  A
C2401      H3248   1.084       .  S
C2402      C2403   1.408       .  A
C2403      C2404   1.414       .  A
C2403     Br2410   1.916       .  S
C2404      C2405   1.416       .  A
C2404      H2409   1.083       .  S
C2405      C2406   1.418       .  A
C2406     Br3247   1.907       .  S
Br2407     C3246   1.906       .  S
H2408      C3241   1.084       .  S
C2411      C2412   1.403       .  A
C2411      C2416   1.406       .  A
C2411      H2418   1.084       .  S
C2412      C2413   1.414       .  A
C2413      C2414   1.393       .  A
C2413     Br2420   1.919       .  S
C2414      C2415   1.398       .  A
C2414      H2419   1.084       .  S
C2415      C2416   1.408       .  A
C2416     Br3257   1.895       .  S
Br2417     C3256   1.894   1_545  S
C2421      C2422   1.403   1_545  A
C2421      C2426   1.392       .  A
C2422      C2423   1.423       .  A
C2423      C2424   1.392       .  A
C2423     Br2430   1.929       .  S
C2424      C2425   1.397       .  A
C2424      H2429   1.080       .  S
C2425      C2426   1.410   1_565  A
C2426     Br2427   1.913       .  S
C2431      C2432   1.400       .  A
C2431      C2436   1.400       .  A
C2431      H2438   1.084       .  S
C2432      C3273   1.414       .  A
C2433      C3272   1.413       .  A
C2433      C2434   1.395       .  A
C2433     Br2440   1.918       .  S
C2434      C3275   1.396       .  A
C2434      H2439   1.084       .  S
C2435      C3274   1.397       .  A
C2435      C2436   1.412       .  A
C2436     Br2437   1.912       .  S
C2441      C2442   1.403       .  A
C2441      C2446   1.387       .  A
C2441      H2448   1.085       .  S
C2442      C2443   1.393       .  A
C2443      C2444   1.391       .  A
C2443     Br2450   1.923       .  S
C2444      C2445   1.422       .  A
C2444      H2449   1.079       .  S
C2445      C2446   1.415       .  A
C2451      C2452   1.412       .  A
C2451      C2456   1.406       .  A
C2451      H2458   1.083   1_556  S
C2452      C2453   1.414       .  A
C2453      C2454   1.408       .  A
C2453     Br2460   1.922       .  S
C2454      C2455   1.417       .  A
C2454      H2459   1.082       .  S
C2455      C2456   1.418       .  A
C2456     Br2457   1.918   1_556  S
C2461      C2462   1.412       .  A
C2461      C2466   1.396       .  A
C2461      H2468   1.082       .  S
C2462      C2463   1.410   1_556  A
C2463      C2464   1.406       .  A
C2464      C2465   1.422   1_554  A
C2464      H2469   1.075       .  S
C2465      C2466   1.415       .  A
C2466     Br2467   1.924       .  S
C2471      C2476   1.402       .  A
C2471      H2478   1.082       .  S
C2472      C2473   1.419       .  A
C2473      C2474   1.394   1_556  A
C2473     Br2480   1.927       .  S
C2474      H2479   1.086       .  S
C2475      C2476   1.408       .  A
C2476     Br2477   1.910       .  S
C2481      C2482   1.397       .  A
C2481      C2486   1.408       .  A
C2481      H2488   1.084       .  S
C2483      C2484   1.416       .  A
C2483     Br2490   1.917       .  S
C2484      H2489   1.083       .  S
C2485      C2486   1.428       .  A
C2486     Br2487   1.921       .  S
C2491      C2496   1.388       .  A
C2491      H2498   1.080       .  S
C2492      C2493   1.429   1_655  A
C2493      C2494   1.400       .  A
C2493     Br2500   1.916       .  S
C2494      C2495   1.395       .  A
C2494      H2499   1.083       .  S
C2496     Br2497   1.920       .  S
C2501      C2502   1.403       .  A
C2501      C2506   1.414       .  A
C2501      H2508   1.083       .  S
C2502      C2503   1.425       .  A
C2503      C2504   1.415       .  A
C2503     Br2510   1.920       .  S
C2504      C2505   1.404       .  A
C2504      H2509   1.083       .  S
C2505      C2506   1.424       .  A
C2506     Br2507   1.920       .  S
C2511      C2512   1.420       .  A
C2511      C2516   1.400       .  A
C2511      H2518   1.084       .  S
C2512      C2513   1.397       .  A
C2513      C2514   1.392       .  A
C2513     Br2520   1.915       .  S
C2514      C2515   1.416       .  A
C2514      H2519   1.084       .  S
C2515      C2516   1.400       .  A
C2516     Br2517   1.917       .  S
C2521      C2522   1.544       .  S
C2521      C2525   1.533       .  S
C2521      C2912   1.532       .  S
C2522      H2529   1.085       .  S
C2522      C2523   1.370       .  D
C2523      C2922   1.521       .  S
C2524      C2528   1.553       .  S
C2524      H2530   1.110       .  S
C2525      H2531   1.081       .  S
C2525      C2526   1.368       .  D
C2526      C2902   1.508       .  S
C2527      H2532   1.090       .  S
C2527      C2528   1.347       .  D
C2528      C2932   1.482       .  S
O2533     Eu2569   2.512       .  S
O2534     Eu2988   2.490       .  S
O2534      C2545   1.294       .  A
O2535      C2546   1.290       .  A
O2536     Eu2541   2.477       .  S
O2536      C2547   1.292       .  A
O2537     Eu2991   2.411       .  S
O2537      C2547   1.285       .  A
O2538     Eu2570   2.429       .  S
O2538      C2546   1.286       .  A
O2539      C2545   1.277       .  A
O2540     Eu2541   2.345       .  S
O2540      C2544   1.273   1_655  A
Eu2541     O2551   2.345       .  S
Eu2541     O2542   2.323       .  S
O2542     Eu2991   2.354       .  S
O2543     Eu2570   2.334   1_455  S
C2544      C2915   1.452       .  S
C2545      C2832   1.475       .  S
C2546      C2815   1.459       .  S
C2547      C2862   1.472       .  S
H2548      O2549   0.966       .  S
O2549     Eu2570   2.358       .  S
O2549     Eu2988   2.348       .  S
H2550      O2551   0.966       .  S
O2551     Eu2991   2.341       .  S
O2552     Eu2568   2.498       .  S
O2552      C2575   1.296       .  A
O2553     Eu2569   2.484       .  S
O2553      C2996   1.296       .  A
O2554     Eu2570   2.505       .  S
O2554      C2577   1.298       .  A
O2555     Eu2571   2.510       .  S
O2555      C2578   1.299       .  A
O2556     Eu2571   2.509       .  S
O2557      C2580   1.304       .  A
O2558     Eu2572   2.517       .  S
O2558      C2581   1.300       .  A
O2560      C3001   1.281       .  A
O2561     Eu2571   2.402       .  S
O2561      C2582   1.280       .  A
O2562     Eu2988   2.449       .  S
O2562      C2577   1.291       .  A
O2563      C2580   1.282       .  A
O2564     Eu2569   2.402       .  S
O2564      C2579   1.283       .  A
O2565     Eu2568   2.402       .  S
O2566      C2575   1.279       .  A
O2567     Eu2572   2.417       .  S
Eu2568     O2954   2.505   1_554  S
Eu2568     O2982   2.442   1_554  S
Eu2568     O2969   2.356   1_554  S
Eu2568     O2586   2.356       .  S
Eu2568     O2994   2.349       .  S
Eu2569     O2993   2.372       .  S
Eu2570     O2574   2.374       .  S
Eu2571     O2957   2.377   1_554  S
Eu2571     O2962   2.354   1_554  S
Eu2571     O2971   2.339   1_554  S
Eu2572     O3004   2.355   1_554  S
O2573     Eu2989   2.369   1_554  S
O2574     Eu2988   2.355       .  S
C2575      C2802   1.459       .  S
C2576      O2973   1.295   1_554  A
C2576      C2842   1.487       .  S
C2577      C2872   1.508       .  S
C2578      C2852   1.474       .  S
C2579      C2882   1.503       .  S
C2580      C2822   1.485       .  S
C2581      O2980   1.280   1_554  A
C2581      C2895   1.466       .  S
C2582      C2905   1.510       .  S
H2583      O2584   0.965       .  S
O2584     Eu2992   2.356       .  S
H2585      O2586   0.966       .  S
C2587      C2588   1.510       .  S
C2587      C2593   1.531       .  S
C2587      C2591   1.552       .  S
C2587      C2792   1.518       .  S
C2588      H2595   1.089       .  S
C2588      C2589   1.352       .  D
C2589      C2845   1.470       .  S
C2590      C2592   1.549   1_545  S
C2590      H2596   1.110   1_545  S
C2591      H2597   1.080       .  S
C2592      C2782   1.501       .  S
C2593      H2598   1.087       .  S
C2593      C2594   1.360       .  D
C2594      C2855   1.486       .  S
O2599     Eu2635   2.549       .  S
O2599      C2610   1.306       .  A
O2600     Eu2634   2.498       .  S
O2600      C2611   1.295       .  A
O2601     Eu2607   2.466       .  S
O2601      C2612   1.290       .  A
O2602     Eu2607   2.436       .  S
O2602      C2613   1.285       .  A
O2603     Eu2637   2.428       .  S
O2603      C2613   1.287       .  A
O2604     Eu2636   2.423       .  S
O2604      C2612   1.285       .  A
O2605     Eu2607   2.428       .  S
O2605      C2611   1.285       .  A
O2606     Eu2607   2.345       .  S
O2606      C2610   1.273       .  A
Eu2607     O2617   2.363       .  S
Eu2607     O2609   2.344       .  S
Eu2607     O2608   2.332       .  S
Eu2607     O2615   2.333       .  S
O2608     Eu2637   2.361       .  S
O2608     Eu2634   2.346       .  S
O2609     Eu2635   2.355       .  S
O2609     Eu2636   2.333       .  S
C2610      C2935   1.481       .  S
C2611      C2715   1.485       .  S
C2612      C2772   1.461       .  S
C2613      C2795   1.443       .  S
H2614      O2615   0.966       .  S
O2615     Eu2636   2.360       .  S
O2615     Eu2634   2.358       .  S
H2616      O2617   0.965       .  S
O2617     Eu2635   2.335       .  S
O2617     Eu2637   2.350       .  S
O2618     Eu2634   2.457       .  S
O2618      C2641   1.289       .  A
O2619     Eu2635   2.505       .  S
O2619      C2642   1.299       .  A
O2620     Eu2636   2.502       .  S
O2620      C2643   1.297       .  A
O2621     Eu2637   2.555       .  S
O2621      C2644   1.307       .  A
O2622     Eu2637   2.548       .  S
O2622      C2645   1.306       .  A
O2623     Eu2636   2.544       .  S
O2623      C2646   1.304       .  A
O2624     Eu2638   2.572       .  S
O2624      C2647   1.309       .  A
O2625     Eu2638   2.571       .  S
O2625      C2648   1.311       .  A
O2626     Eu2636   2.356       .  S
O2626      C2647   1.269       .  A
O2627     Eu2637   2.434       .  S
O2627      C2648   1.287       .  A
O2628     Eu2634   2.442       .  S
O2628      C2643   1.288       .  A
O2629     Eu2635   2.416       .  S
O2629      C2646   1.284       .  A
O2630     Eu2635   2.450       .  S
O2630      C2645   1.290       .  A
O2631     Eu2634   2.418       .  S
O2631      C2644   1.283       .  A
O2632     Eu2638   2.418       .  S
O2632      C2641   1.285       .  A
O2633     Eu2638   2.466       .  S
O2633      C2642   1.294       .  A
Eu2634     O2652   2.365       .  S
Eu2634     O2640   2.361       .  S
Eu2635     O2639   2.380       .  S
Eu2635     O2650   2.356       .  S
Eu2636     O2650   2.339       .  S
Eu2636     O2640   2.363       .  S
Eu2637     O2639   2.376       .  S
Eu2637     O2652   2.354       .  S
Eu2638     O2639   2.378       .  S
Eu2638     O2650   2.354       .  S
Eu2638     O2652   2.367       .  S
Eu2638     O2640   2.364       .  S
C2641      C2762   1.447       .  S
C2642      C2725   1.494       .  S
C2643      C2785   1.484       .  S
C2644      C2732   1.492       .  S
C2645      C2755   1.525       .  S
C2646      C2705   1.487       .  S
C2647      C2742   1.503       .  S
C2648      C2925   1.513       .  S
H2649      O2650   0.964       .  S
H2651      O2652   0.966       .  S
C2653      C3074   1.538       .  S
C2653      C2659   1.545       .  S
C2653      C2657   1.544       .  S
C2653      C2885   1.553       .  S
C2654      C3073   1.535       .  S
C2654      H2661   1.087   1_556  S
C2654      C2655   1.367       .  D
C2655      C3076   1.555       .  S
C2655      C2712   1.498   1_556  S
C2656      C3075   1.553       .  S
C2656      C2660   1.547       .  S
C2656      C2658   1.538       .  S
C2656      H2662   1.107       .  S
C2657      H2663   1.074       .  S
C2657      C2658   1.362       .  D
C2658      C2892   1.493       .  S
C2659      H2664   1.086       .  S
C2659      C2660   1.372       .  D
C2660      C2702   1.511       .  S
C2665      C2666   1.527       .  S
C2665      C2671   1.543       .  S
C2665      C2669   1.545       .  S
C2665      C2812   1.529       .  S
C2666      C2667   1.354   1_655  D
C2667      C2668   1.528   1_455  S
C2668      C2672   1.530       .  S
C2668      C2670   1.533       .  S
C2668      H2674   1.110       .  S
C2669      H2675   1.084       .  S
C2669      C2670   1.371       .  D
C2670      C2805   1.490       .  S
C2671      H2676   1.082       .  S
C2671      C2672   1.370       .  D
C2672      C2765   1.470       .  S
C2677      C2678   1.522       .  S
C2677      C2683   1.526       .  S
C2677      C2681   1.545       .  S
C2677      C2865   1.530       .  S
C2678      H2685   1.084       .  S
C2678      C2679   1.358       .  D
C2679      C2680   1.555       .  S
C2679      C2722   1.489       .  S
C2680      C2684   1.556       .  S
C2680      C2682   1.563       .  S
C2680      H2686   1.104       .  S
C2681      H2687   1.083       .  S
C2681      C2682   1.380       .  D
C2682      C2875   1.523       .  S
C2683      H3108   1.088       .  S
C2683      C2684   1.353       .  D
C2684      C3155   1.486       .  S
H2688      C3103   1.087   1_554  S
C2689      C2690   1.535       .  S
C2689      C2695   1.540       .  S
C2689      C2752   1.571       .  S
C2690      H2697   1.087       .  S
C2691      C2692   1.549   1_545  S
C2691      C2835   1.484   1_545  S
C2692      C2696   1.558       .  S
C2692      C2694   1.535       .  S
C2692      H2698   1.106       .  S
C2693      H2699   1.080       .  S
C2693      C2694   1.372       .  D
C2694      C2745   1.491       .  S
C2695      H2700   1.085       .  S
C2696      C2825   1.523       .  S
C2701      C2702   1.412       .  A
C2701      C2706   1.411       .  A
C2701      H2708   1.083       .  S
C2702      C2703   1.417       .  A
C2703      C2704   1.406       .  A
C2703     Br2710   1.913       .  S
C2704      C2705   1.404       .  A
C2704      H2709   1.084       .  S
C2705      C2706   1.407       .  A
C2706     Br2707   1.914       .  S
C2711      C2712   1.405       .  A
C2711      C2716   1.398       .  A
C2711      H2718   1.081       .  S
C2712      C2713   1.413       .  A
C2713      C2714   1.409       .  A
C2713     Br2720   1.914   1_554  S
C2714      C2715   1.405       .  A
C2714      H2719   1.082       .  S
C2715      C2716   1.410       .  A
C2716     Br2717   1.922       .  S
C2721      C2722   1.400       .  A
C2721      C2726   1.406       .  A
C2721      H2728   1.084       .  S
C2722      C2723   1.415       .  A
C2723      C2724   1.401       .  A
C2723     Br2730   1.920       .  S
C2724      C2725   1.401       .  A
C2724      H2729   1.083       .  S
C2725      C2726   1.417       .  A
C2726     Br2727   1.910       .  S
C2731      C2732   1.407       .  A
C2731      C2736   1.408       .  A
C2731      H2738   1.083       .  S
C2732      C2733   1.411       .  A
C2733      C2734   1.410       .  A
C2733     Br2740   1.914       .  S
C2734      C2735   1.405       .  A
C2734      H2739   1.083       .  S
C2735      C3104   1.498       .  S
C2735      C2736   1.415       .  A
C2736     Br2737   1.921       .  S
C2741      C2742   1.405       .  A
C2741      C2746   1.413       .  A
C2741      H2748   1.081       .  S
C2742      C2743   1.434       .  A
C2743      C2744   1.385       .  A
C2743     Br2750   1.931       .  S
C2744      C2745   1.387       .  A
C2744      H2749   1.085       .  S
C2745      C2746   1.419       .  A
C2746     Br2747   1.907       .  S
C2751      C2752   1.421       .  A
C2751      C2756   1.414       .  A
C2751      H2758   1.074       .  S
C2752      C2753   1.420       .  A
C2753      C2754   1.411       .  A
C2753     Br2760   1.924       .  S
C2754      C2755   1.416       .  A
C2754      H2759   1.083       .  S
C2755      C2756   1.415       .  A
C2756     Br2757   1.921       .  S
C2761      C2762   1.406       .  A
C2761      C2766   1.397       .  A
C2761      H2768   1.084       .  S
C2762      C2763   1.400       .  A
C2763      C2764   1.388       .  A
C2763     Br2770   1.920       .  S
C2764      C2765   1.407       .  A
C2764      H2769   1.083       .  S
C2765      C2766   1.401       .  A
C2766     Br2767   1.918       .  S
C2771      C2772   1.402       .  A
C2771      C2776   1.396       .  A
C2771      H2778   1.084       .  S
C2772      C2773   1.406       .  A
C2773      C2774   1.398       .  A
C2773     Br2780   1.919       .  S
C2774      C2775   1.401       .  A
C2774      H2779   1.084       .  S
C2775      C2776   1.406       .  A
C2776     Br2777   1.920       .  S
C2781      C2782   1.406       .  A
C2781      C2786   1.399       .  A
C2781      H2788   1.080       .  S
C2782      C2783   1.418       .  A
C2783      C2784   1.407       .  A
C2783     Br2790   1.921       .  S
C2784      C2785   1.404       .  A
C2784      H2789   1.083       .  S
C2785      C2786   1.409       .  A
C2786     Br2787   1.921       .  S
C2791      C2792   1.408       .  A
C2791      C2796   1.391       .  A
C2791      H2798   1.076       .  S
C2792      C2793   1.428       .  A
C2793      C2794   1.386       .  A
C2793     Br2800   1.921       .  S
C2794      C2795   1.385       .  A
C2794      H2799   1.084       .  S
C2795      C2796   1.401       .  A
C2796     Br2797   1.919       .  S
C2801      C2802   1.406       .  A
C2801      C2806   1.391       .  A
C2801      H2808   1.085       .  S
C2802      C2803   1.394       .  A
C2803      C2804   1.396       .  A
C2803     Br2810   1.918       .  S
C2804      C2805   1.417       .  A
C2804      H2809   1.078       .  S
C2805      C2806   1.411       .  A
C2811      C2812   1.413       .  A
C2811      C2816   1.395       .  A
C2811      H2818   1.076       .  S
C2812      C2813   1.423       .  A
C2813      C2814   1.397       .  A
C2814      C2815   1.396       .  A
C2815      C2816   1.400       .  A
C2816     Br2817   1.920       .  S
C2821      C2822   1.403       .  A
C2821      C2826   1.410       .  A
C2822      C2823   1.405       .  A
C2823      C2824   1.407       .  A
C2823     Br2830   1.916       .  S
C2824      C2825   1.414       .  A
C2824      H2829   1.083       .  S
C2825      C2826   1.423       .  A
C2831      C2832   1.403       .  A
C2831      C2836   1.405       .  A
C2831      H2838   1.084       .  S
C2832      C2833   1.416       .  A
C2833      C2834   1.386       .  A
C2833     Br2840   1.927       .  S
C2834      C2835   1.396       .  A
C2834      H2839   1.084       .  S
C2835      C2836   1.410       .  A
C2841      C2842   1.404       .  A
C2841      C2846   1.395       .  A
C2841      H3268   1.083   1_554  S
C2842      C2843   1.424       .  A
C2843      C2844   1.396       .  A
C2843     Br2850   1.930       .  S
C2844      C2845   1.399       .  A
C2844      H2849   1.081       .  S
C2845      C2846   1.408       .  A
C2846     Br2847   1.912       .  S
H2848      C3261   1.083       .  S
C2851      C2852   1.399       .  A
C2851      C2856   1.402       .  A
C2851      H2858   1.084       .  S
C2853      C2854   1.398       .  A
C2853     Br2860   1.921   1_545  S
C2854      H2859   1.084   1_545  S
C2855      C2856   1.417       .  A
C2856     Br2857   1.915       .  S
C2861      C2862   1.401       .  A
C2861      C2866   1.387       .  A
C2861      H2868   1.084       .  S
C2862      C2863   1.402       .  A
C2863      C2864   1.402       .  A
C2863     Br2870   1.922       .  S
C2864      C2865   1.424       .  A
C2864      H2869   1.078       .  S
C2865      C2866   1.415       .  A
C2866     Br3287   1.923       .  S
Br2867     C3286   1.926       .  S
C2871      C2872   1.409       .  A
C2871      C2876   1.404       .  A
C2871      H2878   1.083       .  S
C2872      C2873   1.415       .  A
C2873      C2874   1.409       .  A
C2873     Br2880   1.922       .  S
C2874      C2875   1.416       .  A
C2874      H2879   1.082       .  S
C2875      C2876   1.422       .  A
C2876     Br2877   1.919       .  S
C2881      C2882   1.414       .  A
C2881      C2886   1.401       .  A
C2881      H2888   1.083       .  S
C2882      C2883   1.408       .  A
C2883      C2884   1.403       .  A
C2884      C2885   1.421       .  A
C2884      H2889   1.072       .  S
C2885      C2886   1.416       .  A
C2886     Br2887   1.925       .  S
C2891      C3312   1.408   1_554  A
C2891      C2896   1.398       .  A
C2891      H2898   1.080       .  S
C2892      C3311   1.409       .  A
C2892      C2893   1.416       .  A
C2893      C2894   1.393       .  A
C2893     Br2900   1.928       .  S
C2894      C3315   1.403       .  A
C2894      H2899   1.085       .  S
C2895      C3314   1.403       .  A
C2895      C2896   1.405       .  A
C2896     Br2897   1.909       .  S
C2901      C2902   1.397       .  A
C2901      C2906   1.407       .  A
C2901      H2908   1.084       .  S
C2903      C2904   1.412       .  A
C2903     Br2910   1.916       .  S
C2904      H2909   1.083       .  S
C2905      C2906   1.429       .  A
C2906     Br2907   1.921       .  S
C2911      C2916   1.388       .  A
C2911      H2918   1.080       .  S
C2912      C2913   1.430   1_655  A
C2913      C2914   1.401       .  A
C2913     Br2920   1.914       .  S
C2914      C2915   1.395       .  A
C2914      H2919   1.082       .  S
C2916     Br2917   1.920       .  S
C2921      C2922   1.403       .  A
C2921      C2926   1.413       .  A
C2921      H2928   1.083       .  S
C2922      C2923   1.426       .  A
C2923      C2924   1.414       .  A
C2923     Br2930   1.919       .  S
C2924      C2925   1.403       .  A
C2924      H2929   1.083       .  S
C2925      C2926   1.425       .  A
C2926     Br2927   1.921       .  S
C2931      C2932   1.415       .  A
C2931      C2936   1.402       .  A
C2931      H2938   1.084       .  S
C2932      C2933   1.400       .  A
C2933      C2934   1.395       .  A
C2933     Br2940   1.914       .  S
C2934      C2935   1.415       .  A
C2934      H2939   1.084       .  S
C2935      C2936   1.402       .  A
C2936     Br2937   1.911       .  S
C2941      C2942   1.546       .  S
C2941      C2945   1.536       .  S
C2941      C3332   1.527       .  S
C2942      H2949   1.086       .  S
C2942      C2943   1.369       .  D
C2943      C3342   1.519       .  S
C2944      C2948   1.555       .  S
C2944      H2950   1.109       .  S
C2945      H2951   1.083       .  S
C2945      C2946   1.371       .  D
C2946      C3322   1.510       .  S
C2947      H2952   1.090       .  S
C2947      C2948   1.344       .  D
C2948      C3352   1.483       .  S
O2953     Eu2989   2.487       .  S
O2954      C2965   1.298       .  A
O2955      C2966   1.291       .  A
O2956     Eu2961   2.470       .  S
O2956      C2967   1.292       .  A
O2957      C2967   1.279       .  A
O2958     Eu2990   2.423   1_655  S
O2958      C2966   1.285       .  A
O2959      C2965   1.282       .  A
O2960     Eu2961   2.374       .  S
O2960      C2964   1.278   1_655  A
Eu2961     O2971   2.340       .  S
Eu2961     O2962   2.337       .  S
O2963     Eu2990   2.335       .  S
C2964      C3335   1.448       .  S
C2965      C3252   1.479       .  S
C2966      C3235   1.459       .  S
C2967      C3282   1.453       .  S
H2968      O2969   0.966       .  S
O2969     Eu2990   2.355   1_655  S
H2970      O2971   0.965       .  S
O2972     Eu2988   2.471       .  S
O2972      C2995   1.292       .  A
O2973     Eu2989   2.480       .  S
O2974     Eu2990   2.516   1_655  S
O2974      C2997   1.300       .  A
O2975     Eu2991   2.507       .  S
O2975      C2998   1.299       .  A
O2976     Eu2991   2.525   1_455  S
O2977      C3000   1.305       .  A
O2978     Eu2992   2.528       .  S
O2978      C3001   1.302       .  A
O2981     Eu2991   2.424       .  S
O2981      C3002   1.284       .  A
O2982      C2997   1.290       .  A
O2983      C3000   1.284       .  A
O2984     Eu2989   2.422       .  S
O2984      C2999   1.286       .  A
O2985     Eu2988   2.404       .  S
O2986      C2995   1.282       .  A
O2987     Eu2992   2.409       .  S
Eu2988     O3006   2.359       .  S
Eu2990     O2994   2.367   1_456  S
C2995      C3222   1.456       .  S
C2996      C3262   1.483       .  S
C2997      C3292   1.509       .  S
C2998      C3272   1.469       .  S
C2999      C3302   1.501       .  S
C3000      C3242   1.491       .  S
C3001      C3315   1.473       .  S
C3002      C3325   1.516       .  S
H3003      O3004   0.965       .  S
H3005      O3006   0.965       .  S
C3007      C3008   1.514       .  S
C3007      C3013   1.529       .  S
C3007      C3011   1.550       .  S
C3007      C3212   1.517       .  S
C3008      H3015   1.089       .  S
C3008      C3009   1.354       .  D
C3009      C3265   1.466       .  S
C3010      C3012   1.550       .  S
C3010      H3016   1.110       .  S
C3011      H3017   1.081       .  S
C3012      C3202   1.500       .  S
C3013      H3018   1.087       .  S
C3013      C3014   1.357       .  D
C3014      C3275   1.474       .  S
O3019     Eu3055   2.543       .  S
O3019      C3030   1.305       .  A
O3020     Eu3054   2.487       .  S
O3020      C3031   1.293       .  A
O3021     Eu3027   2.488       .  S
O3021      C3032   1.294       .  A
O3022     Eu3027   2.448       .  S
O3022      C3033   1.288       .  A
O3023     Eu3057   2.433       .  S
O3023      C3033   1.288       .  A
O3024     Eu3056   2.425       .  S
O3024      C3032   1.285       .  A
O3025     Eu3027   2.422       .  S
O3025      C3031   1.285       .  A
O3026     Eu3027   2.331       .  S
O3026      C3030   1.271       .  A
Eu3027     O3037   2.360       .  S
Eu3027     O3029   2.343       .  S
Eu3027     O3028   2.339       .  S
Eu3027     O3035   2.321       .  S
O3028     Eu3057   2.363       .  S
O3028     Eu3054   2.348       .  S
O3029     Eu3055   2.355       .  S
O3029     Eu3056   2.323       .  S
C3030      C3355   1.477       .  S
C3031      C3135   1.478       .  S
C3032      C3192   1.476       .  S
C3033      C3215   1.447       .  S
H3034      O3035   0.966       .  S
O3035     Eu3056   2.352       .  S
O3035     Eu3054   2.359       .  S
H3036      O3037   0.964       .  S
O3037     Eu3055   2.330       .  S
O3037     Eu3057   2.352       .  S
O3038     Eu3054   2.465       .  S
O3038      C3061   1.290       .  A
O3039     Eu3055   2.509       .  S
O3039      C3062   1.300       .  A
O3040     Eu3056   2.516       .  S
O3040      C3063   1.299       .  A
O3041     Eu3057   2.533       .  S
O3041      C3064   1.303       .  A
O3042     Eu3057   2.516       .  S
O3042      C3065   1.300       .  A
O3043     Eu3056   2.553       .  S
O3043      C3066   1.306       .  A
O3044     Eu3058   2.569       .  S
O3044      C3067   1.309       .  A
O3045     Eu3058   2.566       .  S
O3045      C3068   1.310       .  A
O3046     Eu3056   2.342       .  S
O3046      C3067   1.269       .  A
O3047     Eu3057   2.448       .  S
O3047      C3068   1.289       .  A
O3048     Eu3054   2.428       .  S
O3048      C3063   1.285       .  A
O3049     Eu3055   2.416       .  S
O3049      C3066   1.284       .  A
O3050     Eu3055   2.433       .  S
O3050      C3065   1.288       .  A
O3051     Eu3054   2.415       .  S
O3051      C3064   1.283       .  A
O3052     Eu3058   2.401       .  S
O3052      C3061   1.283       .  A
O3053     Eu3058   2.451       .  S
O3053      C3062   1.291       .  A
Eu3054     O3072   2.360       .  S
Eu3054     O3060   2.360       .  S
Eu3055     O3059   2.375       .  S
Eu3055     O3070   2.347       .  S
Eu3056     O3070   2.345       .  S
Eu3056     O3060   2.367       .  S
Eu3057     O3059   2.373       .  S
Eu3057     O3072   2.354       .  S
Eu3058     O3059   2.369       .  S
Eu3058     O3070   2.353       .  S
Eu3058     O3072   2.366       .  S
Eu3058     O3060   2.361       .  S
C3061      C3182   1.447       .  S
C3062      C3145   1.497       .  S
C3063      C3205   1.483       .  S
C3064      C3152   1.482       .  S
C3065      C3175   1.507       .  S
C3066      C3125   1.492       .  S
C3067      C3162   1.491       .  S
C3068      C3345   1.515       .  S
H3069      O3070   0.964       .  S
H3071      O3072   0.966       .  S
C3073      C3079   1.545       .  S
C3073      C3077   1.540       .  S
C3073      C3305   1.548       .  S
C3074      H3081   1.087       .  S
C3074      C3075   1.370       .  D
C3075      C3132   1.491       .  S
C3076      C3080   1.555       .  S
C3076      C3078   1.548       .  S
C3076      H3082   1.108       .  S
C3077      H3083   1.073       .  S
C3077      C3078   1.364       .  D
C3078      C3312   1.498       .  S
C3079      H3084   1.085       .  S
C3079      C3080   1.370       .  D
C3080      C3122   1.514       .  S
C3085      C3086   1.533   1_655  S
C3085      C3091   1.546       .  S
C3085      C3089   1.544       .  S
C3085      C3232   1.535       .  S
C3086      C3087   1.360       .  D
C3087      C3088   1.536   1_455  S
C3088      C3092   1.534       .  S
C3088      C3090   1.537       .  S
C3088      H3094   1.110       .  S
C3089      H3095   1.084       .  S
C3089      C3090   1.372       .  D
C3090      C3225   1.491       .  S
C3091      H3096   1.082       .  S
C3091      C3092   1.366       .  D
C3092      C3185   1.481       .  S
C3097      C3098   1.519       .  S
C3097      C3103   1.528       .  S
C3097      C3101   1.536       .  S
C3097      C3285   1.521       .  S
C3098      H3105   1.086       .  S
C3098      C3099   1.351       .  D
C3099      C3100   1.560       .  S
C3099      C3142   1.488       .  S
C3100      C3104   1.564   1_556  S
C3100      C3102   1.568       .  S
C3100      H3106   1.105       .  S
C3101      H3107   1.082       .  S
C3101      C3102   1.376       .  D
C3102      C3295   1.519       .  S
C3103      C3104   1.358   1_556  D
C3109      C3110   1.534       .  S
C3109      C3115   1.545       .  S
C3109      C3172   1.556       .  S
C3110      H3117   1.087       .  S
C3111      C3112   1.553   1_545  S
C3111      C3255   1.488   1_545  S
C3112      C3116   1.560       .  S
C3112      C3114   1.535       .  S
C3112      H3118   1.107       .  S
C3113      H3119   1.079       .  S
C3113      C3114   1.366       .  D
C3114      C3165   1.485       .  S
C3115      H3120   1.086       .  S
C3116      C3245   1.523       .  S
C3121      C3122   1.414       .  A
C3121      C3126   1.415       .  A
C3121      H3128   1.083       .  S
C3122      C3123   1.414       .  A
C3123      C3124   1.406       .  A
C3123     Br3130   1.909       .  S
C3124      C3125   1.405       .  A
C3124      H3129   1.084       .  S
C3125      C3126   1.409       .  A
C3126     Br3127   1.917       .  S
C3131      C3132   1.403       .  A
C3131      C3136   1.391       .  A
C3131      H3138   1.080       .  S
C3132      C3133   1.411       .  A
C3133      C3134   1.408       .  A
C3133     Br3140   1.913       .  S
C3134      C3135   1.406       .  A
C3134      H3139   1.083       .  S
C3135      C3136   1.410       .  A
C3136     Br3137   1.924       .  S
C3141      C3142   1.396       .  A
C3141      C3146   1.403       .  A
C3141      H3148   1.084       .  S
C3142      C3143   1.417       .  A
C3143      C3144   1.404       .  A
C3143     Br3150   1.919       .  S
C3144      C3145   1.403       .  A
C3144      H3149   1.083       .  S
C3145      C3146   1.420       .  A
C3146     Br3147   1.905       .  S
C3151      C3152   1.405       .  A
C3151      C3156   1.404       .  A
C3151      H3158   1.084       .  S
C3152      C3153   1.410       .  A
C3153      C3154   1.404       .  A
C3153     Br3160   1.909       .  S
C3154      C3155   1.402       .  A
C3154      H3159   1.084       .  S
C3155      C3156   1.413       .  A
C3156     Br3157   1.921       .  S
C3161      C3162   1.401       .  A
C3161      C3166   1.407       .  A
C3161      H3168   1.073       .  S
C3162      C3163   1.429       .  A
C3163      C3164   1.381       .  A
C3163     Br3170   1.924       .  S
C3164      C3165   1.391       .  A
C3164      H3169   1.085       .  S
C3165      C3166   1.414       .  A
C3166     Br3167   1.909       .  S
C3171      C3172   1.422       .  A
C3171      C3176   1.409       .  A
C3171      H3178   1.073       .  S
C3172      C3173   1.416       .  A
C3173      C3174   1.401       .  A
C3173     Br3180   1.924       .  S
C3174      C3175   1.412       .  A
C3174      H3179   1.083       .  S
C3175      C3176   1.413       .  A
C3176     Br3177   1.923       .  S
C3181      C3182   1.402       .  A
C3181      C3186   1.396       .  A
C3181      H3188   1.084       .  S
C3182      C3183   1.400       .  A
C3183      C3184   1.393       .  A
C3183     Br3190   1.923       .  S
C3184      C3185   1.412       .  A
C3184      H3189   1.083       .  S
C3185      C3186   1.404       .  A
C3186     Br3187   1.912       .  S
C3191      C3192   1.403       .  A
C3191      C3196   1.402       .  A
C3191      H3198   1.084       .  S
C3192      C3193   1.410       .  A
C3193      C3194   1.403       .  A
C3193     Br3200   1.922       .  S
C3194      C3195   1.403       .  A
C3194      H3199   1.084       .  S
C3195      C3196   1.409       .  A
C3196     Br3197   1.915       .  S
C3201      C3202   1.407       .  A
C3201      C3206   1.402       .  A
C3201      H3208   1.080       .  S
C3202      C3203   1.417       .  A
C3203      C3204   1.403       .  A
C3203     Br3210   1.921       .  S
C3204      C3205   1.401       .  A
C3204      H3209   1.081       .  S
C3205      C3206   1.409       .  A
C3206     Br3207   1.921       .  S
C3211      C3212   1.410       .  A
C3211      C3216   1.397       .  A
C3211      H3218   1.077       .  S
C3212      C3213   1.425       .  A
C3213      C3214   1.383       .  A
C3213     Br3220   1.923       .  S
C3214      C3215   1.383       .  A
C3214      H3219   1.082       .  S
C3215      C3216   1.403       .  A
C3216     Br3217   1.919       .  S
C3221      C3222   1.404       .  A
C3221      C3226   1.391       .  A
C3221      H3228   1.085       .  S
C3222      C3223   1.393       .  A
C3223      C3224   1.393       .  A
C3223     Br3230   1.919       .  S
C3224      C3225   1.417       .  A
C3224      H3229   1.076       .  S
C3225      C3226   1.412       .  A
C3231      C3232   1.415       .  A
C3231      C3236   1.393       .  A
C3231      H3238   1.075       .  S
C3232      C3233   1.422       .  A
C3233      C3234   1.399       .  A
C3234      C3235   1.397       .  A
C3235      C3236   1.399       .  A
C3236     Br3237   1.921       .  S
C3241      C3242   1.402       .  A
C3241      C3246   1.408       .  A
C3242      C3243   1.408       .  A
C3243      C3244   1.414       .  A
C3243     Br3250   1.916       .  S
C3244      C3245   1.416       .  A
C3244      H3249   1.083       .  S
C3245      C3246   1.419       .  A
C3251      C3252   1.403       .  A
C3251      C3256   1.406       .  A
C3251      H3258   1.084       .  S
C3252      C3253   1.414       .  A
C3253      C3254   1.392       .  A
C3253     Br3260   1.920       .  S
C3254      C3255   1.398       .  A
C3254      H3259   1.084       .  S
C3255      C3256   1.407       .  A
C3261      C3262   1.404       .  A
C3261      C3266   1.393       .  A
C3262      C3263   1.422       .  A
C3263      C3264   1.391       .  A
C3263     Br3270   1.929       .  S
C3264      C3265   1.396       .  A
C3264      H3269   1.080       .  S
C3265      C3266   1.410       .  A
C3266     Br3267   1.914       .  S
C3271      C3272   1.400       .  A
C3271      C3276   1.400       .  A
C3271      H3278   1.084       .  S
C3273      C3274   1.396       .  A
C3273     Br3280   1.918   1_545  S
C3274      H3279   1.084   1_545  S
C3275      C3276   1.412       .  A
C3276     Br3277   1.912       .  S
C3281      C3282   1.403       .  A
C3281      C3286   1.388       .  A
C3281      H3288   1.085       .  S
C3282      C3283   1.393       .  A
C3283      C3284   1.391       .  A
C3283     Br3290   1.923       .  S
C3284      C3285   1.422       .  A
C3284      H3289   1.079       .  S
C3285      C3286   1.415       .  A
C3291      C3292   1.412       .  A
C3291      C3296   1.405       .  A
C3291      H3298   1.083   1_556  S
C3292      C3293   1.414       .  A
C3293      C3294   1.407       .  A
C3293     Br3300   1.922       .  S
C3294      C3295   1.416       .  A
C3294      H3299   1.082       .  S
C3295      C3296   1.418       .  A
C3296     Br3297   1.918   1_556  S
C3301      C3302   1.412       .  A
C3301      C3306   1.396       .  A
C3301      H3308   1.083       .  S
C3302      C3303   1.410   1_556  A
C3303      C3304   1.406       .  A
C3304      C3305   1.422   1_554  A
C3304      H3309   1.076       .  S
C3305      C3306   1.414       .  A
C3306     Br3307   1.924       .  S
C3311      C3316   1.402       .  A
C3311      H3318   1.082       .  S
C3312      C3313   1.420       .  A
C3313      C3314   1.395   1_556  A
C3313     Br3320   1.928       .  S
C3314      H3319   1.086       .  S
C3315      C3316   1.408       .  A
C3316     Br3317   1.909       .  S
C3321      C3322   1.397       .  A
C3321      C3326   1.408       .  A
C3321      H3328   1.084       .  S
C3323      C3324   1.416       .  A
C3323     Br3330   1.917       .  S
C3324      H3329   1.083       .  S
C3325      C3326   1.428       .  A
C3326     Br3327   1.921       .  S
C3331      C3336   1.388       .  A
C3331      H3338   1.080       .  S
C3332      C3333   1.429   1_655  A
C3333      C3334   1.399       .  A
C3333     Br3340   1.916       .  S
C3334      C3335   1.394       .  A
C3334      H3339   1.084       .  S
C3336     Br3337   1.920       .  S
C3341      C3342   1.403       .  A
C3341      C3346   1.413       .  A
C3341      H3348   1.083       .  S
C3342      C3343   1.425       .  A
C3343      C3344   1.414       .  A
C3343     Br3350   1.920       .  S
C3344      C3345   1.404       .  A
C3344      H3349   1.083       .  S
C3345      C3346   1.424       .  A
C3346     Br3347   1.920       .  S
C3351      C3352   1.420       .  A
C3351      C3356   1.401       .  A
C3351      H3358   1.084       .  S
C3352      C3353   1.397       .  A
C3353      C3354   1.392       .  A
C3353     Br3360   1.915       .  S
C3354      C3355   1.416       .  A
C3354      H3359   1.084       .  S
C3355      C3356   1.400       .  A
C3356     Br3357   1.917       .  S
