geometry optimzed in LAMMPS
_audit_creation_date              2020-11-30 
_audit_creation_method            'lammps2cif' 
_symmetry_space_group_name_H-M    'P1' 
_symmetry_Int_Tables_number       1 
_symmetry_cell_setting            triclinic 
loop_ 
_symmetry_equiv_pos_as_xyz 
  x,y,z 
_cell_length_a                    24.10218872 
_cell_length_b                    23.44681995000957 
_cell_length_c                    24.816198683084433 
_cell_angle_alpha                 89.09773781049061 
_cell_angle_beta                  91.04865298225123 
_cell_angle_gamma                 90.46404792960193 
loop_ 
_atom_site_label 
_atom_site_type_symbol 
_atom_site_fract_x 
_atom_site_fract_y 
_atom_site_fract_z 
_atom_site_charge 
O1          O  0.51911829  0.20431040  0.42111219    -0.74700
O2          O  0.54350546  0.08575279  0.52586628    -0.74700
O3          O  0.51343863  0.08839582  0.42081796    -0.74800
O4          O  0.54713380  0.20228521  0.52303163    -0.74800
O5          O  0.45917972  0.20579784  0.54741531    -0.74800
O6          O  0.42392397  0.09340281  0.44158518    -0.74800
O7          O  0.45428823  0.08865922  0.54777624    -0.74700
O8          O  0.43100790  0.21183959  0.44477355    -0.74800
Ni9        Ni  0.53378009  0.14454970  0.47195807     1.25400
Ni10       Ni  0.43860980  0.14937786  0.49605374     1.25400
C11         C  0.47389240  0.23244472  0.42128157     0.87500
C12         C  0.50305532  0.06738179  0.55412319     0.87400
C13         C  0.46318754  0.07168677  0.41466616     0.87400
C14         C  0.50811129  0.22718425  0.54732547     0.87600
O15         O  0.03468158  0.51223093  0.55413246    -0.74700
O16         O  0.04591551  0.35536963  0.53362854    -0.74700
O17         O  0.10564947  0.43522543  0.58949672    -0.74800
O18         O  0.97666938  0.43845695  0.49847746    -0.74800
O19         O  0.02888487  0.45542088  0.42657109    -0.74800
O20         O  0.15705530  0.45334373  0.51774006    -0.74800
O21         O  0.09796858  0.37113458  0.46211941    -0.74700
O22         O  0.08443663  0.53298329  0.48252669    -0.74800
Ni23       Ni  0.03924785  0.43399901  0.54643247     1.25400
Ni24       Ni  0.09465408  0.45310571  0.46964985     1.25400
C25         C  0.05302373  0.54860021  0.52057333     0.87500
C26         C  0.07164946  0.33649367  0.49344324     0.87400
C27         C  0.15015355  0.45502859  0.56870481     0.87400
C28         C  0.98152838  0.45061072  0.44822374     0.87600
O29         O  0.48085355  0.53677370  0.96041661    -0.74700
O30         O  0.63210404  0.57666354  0.98945038    -0.74700
O31         O  0.57431583  0.54486588  0.89983514    -0.74800
O32         O  0.54015831  0.56962737  0.04719358    -0.74800
O33         O  0.55878763  0.47888746  0.06723720    -0.74800
O34         O  0.59725657  0.45559401  0.92141985    -0.74800
O35         O  0.65188433  0.48687941  0.01182333    -0.74700
O36         O  0.50275604  0.44644117  0.97802204    -0.74800
Ni37       Ni  0.55616596  0.56026130  0.97310623     1.25400
Ni38       Ni  0.57814017  0.46368274  0.99492564     1.25400
C39         C  0.46622110  0.48484129  0.96888004     0.87500
C40         C  0.66666953  0.53900105  0.00682028     0.87400
C41         C  0.59079171  0.49547206  0.88606387     0.87400
C42         C  0.54726426  0.52942155  0.08199802     0.87600
O43         O  0.03590930  0.30736821  0.11142270    -0.74700
O44         O  0.07462551  0.43180559  0.01333906    -0.74700
O45         O  0.02892944  0.42452951  0.11266437    -0.74800
O46         O  0.08317727  0.31560738  0.01923893    -0.74800
O47         O  0.00002152  0.31070315  0.97809903    -0.74800
O48         O  0.94383873  0.41946643  0.07589088    -0.74800
O49         O  0.98999131  0.42668318  0.97716941    -0.74700
O50         O  0.95283631  0.30220218  0.07173233    -0.74800
Ni51       Ni  0.05842031  0.37074139  0.06596832     1.25400
Ni52       Ni  0.96842344  0.36496158  0.02458659     1.25400
C53         C  0.99120378  0.27912222  0.10052776     0.87500
C54         C  0.03861458  0.44903327  0.97758112     0.87400
C55         C  0.97864795  0.44070406  0.10973414     0.87400
C56         C  0.05021899  0.29384924  0.98478983     0.87600
O57         O  0.54794243  0.07427067  0.01270432    -0.74700
O58         O  0.39600675  0.11885501  0.99479397    -0.74700
O59         O  0.45176750  0.03737853  0.05057920    -0.74800
O60         O  0.49601127  0.15841135  0.95863958    -0.74800
O61         O  0.49044198  0.10430189  0.88594730    -0.74800
O62         O  0.44252800  0.98292942  0.97766243    -0.74800
O63         O  0.38989072  0.06464618  0.92193932    -0.74700
O64         O  0.53710728  0.02163959  0.94013673    -0.74800
Ni65       Ni  0.47272337  0.10008955  0.00656964     1.25400
Ni66       Ni  0.46390345  0.04186888  0.92868423     1.25400
C67         C  0.56660234  0.03794592  0.97964097     0.87500
C68         C  0.36739290  0.09574318  0.95675777     0.87400
C69         C  0.44322158  0.98928807  0.02890795     0.87400
C70         C  0.51096230  0.14710607  0.91078902     0.87600
O71         O  0.83845308  0.76630924  0.91176303    -0.81200
O72         O  0.85563554  0.74973174  0.66111219    -0.65900
O73         O  0.85809552  0.80222598  0.80618899    -1.12500
C74         C  0.65701613  0.80560209  0.77256375     1.05700
O75         O  0.79456393  0.81806265  0.63892712    -0.79100
O76         O  0.73247167  0.87940363  0.70619860    -0.66600
Ni77       Ni  0.90112743  0.77165504  0.86376550     1.34900
C78         C  0.75862216  0.91081322  0.73988575     0.84500
O79         O  0.94292721  0.75600105  0.73694863    -0.79600
O80         O  0.96797252  0.77593261  0.82238257    -0.89900
C81         C  0.83217388  0.78343450  0.62603979     0.84000
O82         O  0.89116518  0.69459657  0.84240391    -0.68100
O83         O  0.67073135  0.78296193  0.72858286    -0.87400
C84         C  0.87346193  0.66506906  0.80270608     0.84900
C85         C  0.97903090  0.75577056  0.77639953     1.06400
H86         H  0.76766163  0.73702420  0.74875982     0.38200
O87         O  0.78097183  0.77538729  0.74218044    -1.10000
O88         O  0.78343050  0.88964632  0.78187825    -0.66700
Ni89       Ni  0.77756397  0.81035409  0.81032916     1.26300
O90         O  0.85575593  0.68834888  0.75867758    -0.66900
O91         O  0.69414508  0.81941792  0.80898580    -0.79200
C92         C  0.80740678  0.80840665  0.92192741     0.84200
O93         O  0.78294555  0.83669182  0.88342745    -0.66400
Ni94       Ni  0.73423073  0.80075589  0.68587397     1.27400
Ni95       Ni  0.86095121  0.76902913  0.73635753     1.26100
H96         H  0.87293982  0.84033146  0.80150979     0.38800
O97         O  0.29008974  0.61623811  0.75872492    -0.81200
O98         O  0.25688812  0.86864820  0.74159468    -0.65900
O99         O  0.32555645  0.72500335  0.73065104    -1.12500
C100        C  0.36115668  0.74212905  0.91776144     1.05700
O101        O  0.32288704  0.90772723  0.79441645    -0.79100
O102        O  0.41273893  0.83908145  0.81878618    -0.66600
Ni103      Ni  0.29014918  0.66377478  0.69538622     1.34900
C104        C  0.43980307  0.79758402  0.79999171     0.84500
O105        O  0.26651302  0.79599864  0.65561487    -0.79600
O106        O  0.29259769  0.70873364  0.63003030    -0.89900
C107        C  0.28024444  0.91213011  0.76306782     0.84000
O108        O  0.21295474  0.67945175  0.71115592    -0.68100
O109        O  0.35893533  0.79602863  0.90816097    -0.87400
C110        C  0.18914623  0.71702105  0.73917216     0.84900
C111        C  0.27227763  0.75771027  0.61907690     1.06400
H112        H  0.27247804  0.78080686  0.82887385     0.38200
O113        O  0.30637253  0.78802008  0.80965236    -1.10000
O114        O  0.41846259  0.74714173  0.79517758    -0.66700
Ni115      Ni  0.34194067  0.71559179  0.80550839     1.26300
O116        O  0.21402508  0.76342797  0.75163817    -0.66900
O117        O  0.35396948  0.70527408  0.88151287    -0.79200
C118        C  0.33638509  0.60196193  0.77917896     0.84200
O119        O  0.36965842  0.64046082  0.79633379    -0.66400
Ni120      Ni  0.34090921  0.84811333  0.84864455     1.27400
Ni121      Ni  0.28742943  0.79497596  0.73368351     1.26100
H122        H  0.35994294  0.73224445  0.71224007     0.38800
O123        O  0.74015089  0.28714556  0.86499757    -0.81200
O124        O  0.74894857  0.26770845  0.62709781    -0.65900
O125        O  0.78707963  0.24724890  0.77717609    -1.12500
C126        C  0.83717592  0.44622647  0.76815100     1.05700
O127        O  0.82694040  0.31659672  0.61457681    -0.79100
O128        O  0.90500466  0.34678035  0.68953058    -0.66600
Ni129      Ni  0.73590257  0.21586887  0.82720852     1.34900
C130        C  0.91959672  0.31668337  0.73041297     0.84500
O131        O  0.74444949  0.17463580  0.70250876    -0.79600
O132        O  0.73376435  0.14428789  0.78916509    -0.89900
C133        C  0.78184342  0.29495919  0.59537476     0.84000
O134        O  0.66439581  0.23585144  0.79683326    -0.68100
O135        O  0.83997801  0.44285042  0.71660548    -0.87400
C136        C  0.65146663  0.26096995  0.75290902     0.84900
C137        C  0.73672047  0.13457553  0.73864277     1.06400
H138        H  0.75217817  0.35696351  0.71649101     0.38200
O139        O  0.78595236  0.33514444  0.71555920    -1.10000
O140        O  0.88611865  0.30601394  0.76937361    -0.66700
Ni141      Ni  0.81006922  0.32483092  0.78858777     1.26300
O142        O  0.68770915  0.27392076  0.71749452    -0.66900
O143        O  0.82984066  0.40239032  0.79821312    -0.79200
C144        C  0.78516217  0.29470475  0.89180211     0.84200
O145        O  0.82734647  0.31056408  0.86494550    -0.66400
Ni146      Ni  0.83327348  0.37719088  0.66737776     1.27400
Ni147      Ni  0.76491241  0.25551719  0.70451831     1.26100
H148        H  0.81952471  0.22337548  0.77869584     0.38800
O149        O  0.41953176  0.19508676  0.72374647    -0.81200
O150        O  0.16419293  0.24824252  0.67300724    -0.65900
O151        O  0.32345892  0.25447316  0.69029533    -1.12500
C152        C  0.27433451  0.29887666  0.86894028     1.05700
O153        O  0.15747378  0.33259453  0.70805872    -0.79100
O154        O  0.25150682  0.39038915  0.74763608    -0.66600
Ni155      Ni  0.36648441  0.19155821  0.66370416     1.34900
C156        C  0.30424913  0.38991283  0.75071912     0.84500
O157        O  0.24870156  0.24132580  0.60515154    -0.79600
O158        O  0.32119028  0.18297926  0.59850939    -0.89900
C159        C  0.13343465  0.28785863  0.68990911     0.84000
O160        O  0.32454375  0.13124295  0.69919083    -0.68100
O161        O  0.24093717  0.33374533  0.84511959    -0.87400
C162        C  0.27188866  0.12540042  0.70209683     0.84900
C163        C  0.27759026  0.20673861  0.57922125     1.06400
H164        H  0.22605866  0.23110360  0.77375204     0.38200
O165        O  0.24220463  0.26377487  0.75546302    -1.10000
O166        O  0.33083155  0.34432027  0.75941916    -0.66700
Ni167      Ni  0.32075515  0.26414512  0.76744451     1.26300
O168        O  0.23897502  0.16746570  0.69264324    -0.66900
O169        O  0.31194032  0.27172220  0.84411491    -0.79200
C170        C  0.43537137  0.23927511  0.74900051     0.84200
O171        O  0.40043199  0.26751234  0.77526710    -0.66400
Ni172      Ni  0.20216206  0.33160898  0.77524378     1.27400
Ni173      Ni  0.24437754  0.25054672  0.67999677     1.26100
H174        H  0.33689852  0.28912694  0.67326684     0.38800
O175        O  0.76016245  0.80201115  0.41310979    -0.81200
O176        O  0.73059520  0.79560738  0.15958853    -0.65900
O177        O  0.73399015  0.75733049  0.30973889    -1.12500
C178        C  0.93343039  0.74023220  0.28189865     1.05700
O179        O  0.79548320  0.73436114  0.13821224    -0.79100
O180        O  0.84444487  0.66346372  0.21451897    -0.66600
Ni181      Ni  0.69808408  0.80341718  0.36139390     1.34900
C182        C  0.82014899  0.64156562  0.25558241     0.84500
O183        O  0.64605368  0.77803319  0.23281376    -0.79600
O184        O  0.63106592  0.80651080  0.31736176    -0.89900
C185        C  0.76468042  0.77640081  0.12546276     0.84000
O186        O  0.72303320  0.87607995  0.33307580    -0.68100
O187        O  0.92240821  0.75276039  0.23289772    -0.87400
C188        C  0.73021580  0.89321120  0.28470240     0.84900
C189        C  0.61312115  0.79433130  0.26999169     1.06400
H190        H  0.82243729  0.81648998  0.24221695     0.38200
O191        O  0.80998153  0.77723373  0.24143331    -1.10000
O192        O  0.80507649  0.67104132  0.29549732    -0.66700
Ni193      Ni  0.81400177  0.75008599  0.31421932     1.26300
O194        O  0.72939074  0.85963133  0.24477477    -0.66900
O195        O  0.89541446  0.73873029  0.31769375    -0.79200
C196        C  0.79784530  0.76506704  0.42296232     0.84200
O197        O  0.81117651  0.72858269  0.38807801    -0.66400
Ni198      Ni  0.85608093  0.74211231  0.18920896     1.27400
Ni199      Ni  0.72866055  0.77754433  0.23503935     1.26100
H200        H  0.71758920  0.71982711  0.31364153     0.38800
O201        O  0.30129282  0.86015191  0.22388091    -0.81200
O202        O  0.33372535  0.59838197  0.24083199    -0.65900
O203        O  0.26847575  0.74416333  0.22299929    -1.12500
C204        C  0.24175676  0.71725989  0.41346703     1.05700
O205        O  0.25189595  0.57116032  0.27283469    -0.79100
O206        O  0.17278805  0.64452562  0.30798033    -0.66600
Ni207      Ni  0.29624524  0.79851585  0.17293343     1.34900
C208        C  0.14949838  0.69163033  0.29485937     0.84500
O209        O  0.33111821  0.66764634  0.15542054    -0.79600
O210        O  0.29019580  0.74181321  0.11709402    -0.89900
C211        C  0.29429407  0.56185125  0.24406510     0.84000
O212        O  0.37412123  0.78332987  0.18716430    -0.68100
O213        O  0.23843975  0.66563117  0.39740456    -0.87400
C214        C  0.40015766  0.75483060  0.22394069     0.84900
C215        C  0.32104732  0.69853755  0.11386077     1.06400
H216        H  0.32030375  0.68153283  0.32442195     0.38200
O217        O  0.28637024  0.67996330  0.30310839    -1.10000
O218        O  0.17762104  0.73834297  0.29174136    -0.66700
Ni219      Ni  0.25870325  0.75529598  0.29954583     1.26300
O220        O  0.37850213  0.71061093  0.24715027    -0.66900
O221        O  0.25073199  0.75949462  0.37997538    -0.79200
C222        C  0.27242416  0.87165045  0.26476359     0.84200
O223        O  0.24201430  0.83438232  0.28906036    -0.66400
Ni224      Ni  0.24488900  0.62080227  0.33403635     1.27400
Ni225      Ni  0.30673330  0.67339156  0.22951550     1.26100
H226        H  0.23222989  0.73453812  0.20841975     0.38800
O227        O  0.80006300  0.25961794  0.36769062    -0.81200
O228        O  0.79123653  0.29942719  0.12562317    -0.65900
O229        O  0.75752156  0.30478785  0.27701872    -1.12500
C230        C  0.70791486  0.10978065  0.24233761     1.05700
O231        O  0.70512640  0.27078236  0.12025692    -0.79100
O232        O  0.63098346  0.21840812  0.18671703    -0.66600
Ni233      Ni  0.81157455  0.33041660  0.32855723     1.34900
C234        C  0.61885053  0.24244174  0.23029632     0.84500
O235        O  0.80099571  0.38376125  0.20268327    -0.79600
O236        O  0.82071584  0.40335704  0.29007101    -0.89900
C237        C  0.75023475  0.28255180  0.09640266     0.84000
O238        O  0.87838284  0.29852462  0.30057704    -0.68100
O239        O  0.69971492  0.12464609  0.19292756    -0.87400
C240        C  0.88875574  0.27491843  0.25635302     0.84900
C241        C  0.81042676  0.41919065  0.24105159     1.06400
H242        H  0.78457960  0.20071099  0.20730215     0.38200
O243        O  0.75274043  0.22532413  0.20921977    -1.10000
O244        O  0.65501554  0.25091508  0.26784862    -0.66700
Ni245      Ni  0.73104016  0.22605372  0.28262715     1.26300
O246        O  0.85429161  0.27604801  0.21633343    -0.66900
O247        O  0.70910938  0.14525934  0.28183837    -0.79200
C248        C  0.75358774  0.25174917  0.39025406     0.84200
O249        O  0.71444981  0.23237093  0.36003810    -0.66400
Ni250      Ni  0.70097772  0.19812275  0.15679984     1.27400
Ni251      Ni  0.77842585  0.30382205  0.20326441     1.26100
H252        H  0.72603404  0.32981079  0.27955163     0.38800
O253        O  0.08448214  0.01879029  0.51901759    -0.74700
O254        O  0.93103576  0.05648746  0.50070473    -0.74700
O255        O  0.99672902  0.02109365  0.58350979    -0.74800
O256        O  0.01822600  0.05541836  0.43586128    -0.74800
O257        O  0.99312058  0.96683435  0.41483649    -0.74800
O258        O  0.97861520  0.93021895  0.56477373    -0.74800
O259        O  0.90959394  0.96609436  0.48356123    -0.74700
O260        O  0.06211675  0.93011112  0.49648061    -0.74800
Ni261      Ni  0.00832859  0.04114553  0.51045046     1.25400
Ni262      Ni  0.98531007  0.94498665  0.48909049     1.25400
C263        C  0.09846579  0.96717719  0.51101934     0.87500
C264        C  0.89488854  0.01774045  0.48956059     0.87400
C265        C  0.98913251  0.96945678  0.59886300     0.87400
C266        C  0.00291459  0.01883497  0.40104305     0.87600
C267        C  0.27648634  0.92890253  0.28920497     0.02800
C268        C  0.27426706  0.98242132  0.26108930    -0.13300
C269        C  0.26205826  0.03263968  0.29013347     0.00300
C270        C  0.24858360  0.02632262  0.34504669    -0.11800
C271        C  0.25342803  0.97351556  0.37219088     0.02800
C272        C  0.27510088  0.92802051  0.34516127    -0.11200
H273        H  0.28051285  0.98473901  0.21802514     0.08400
H274        H  0.23550779  0.06286370  0.36685974     0.06000
H275        H  0.28159190  0.88812538  0.36712930     0.05800
O276        O  0.11223327  0.27182620  0.22615667    -0.81200
O277        O  0.36887956  0.26111725  0.17945319    -0.65900
O278        O  0.21409047  0.22274919  0.18954540    -1.12500
C279        C  0.26312829  0.18457500  0.37531825     1.05700
O280        O  0.39276653  0.18556238  0.22669075    -0.79100
O281        O  0.32079331  0.11130456  0.27608211    -0.66600
Ni282      Ni  0.16052434  0.27915485  0.16432368     1.34900
C283        C  0.27134448  0.09276480  0.27038786     0.84500
O284        O  0.28471046  0.25146278  0.10463984    -0.79600
O285        O  0.20079649  0.29263915  0.09759224    -0.89900
C286        C  0.40633716  0.23223885  0.20372463     0.84000
O287        O  0.19228911  0.34507668  0.19621736    -0.68100
O288        O  0.31376417  0.18174099  0.36116840    -0.87400
C289        C  0.24258569  0.35968752  0.19382438     0.84900
C290        C  0.24508166  0.27383594  0.07664196     1.06400
H291        H  0.29649863  0.26833546  0.27610156     0.38200
O292        O  0.29298041  0.23134522  0.25972353    -1.10000
O293        O  0.22975574  0.12551374  0.25951332    -0.66700
Ni294      Ni  0.21699264  0.20831564  0.26584193     1.26300
O295        O  0.28168096  0.32405064  0.18879697    -0.66900
O296        O  0.22276677  0.19615642  0.34254437    -0.79200
C297        C  0.09976772  0.22666314  0.25227106     0.84200
O298        O  0.13788408  0.19142905  0.26699786    -0.66400
Ni299      Ni  0.35067143  0.18513781  0.29224442     1.27400
Ni300      Ni  0.29098339  0.24258871  0.18225477     1.26100
H301        H  0.20702060  0.18733713  0.17115646     0.38800
C302        C  0.93892446  0.23707997  0.25401470     0.02800
C303        C  0.99574515  0.25428810  0.26147857    -0.13300
C304        C  0.03908019  0.21286027  0.26090281     0.00300
C305        C  0.02326792  0.15564542  0.25607217    -0.11800
C306        C  0.97254525  0.14325800  0.23033809     0.02800
C307        C  0.92839072  0.18013577  0.24083804    -0.11200
H308        H  0.00659109  0.29855606  0.26632716     0.08400
H309        H  0.05537657  0.12383982  0.25554042     0.06000
H310        H  0.88657527  0.16784211  0.22911190     0.05800
C311        C  0.25557688  0.27363652  0.92074535     0.02800
C312        C  0.22268923  0.22515715  0.91269079    -0.13300
C313        C  0.20441403  0.19097922  0.95551286     0.00300
C314        C  0.20958198  0.21354311  0.00707476    -0.11800
C315        C  0.24110002  0.26230365  0.01792311     0.02800
C316        C  0.26577449  0.29307464  0.97430366    -0.11200
H317        H  0.21540169  0.21148157  0.87181293     0.08400
H318        H  0.19474878  0.18874238  0.04077620     0.06000
H319        H  0.29079152  0.33081803  0.98157901     0.05800
C320        C  0.56072709  0.26382923  0.23665669     0.02800
C321        C  0.55261316  0.31176328  0.26873764    -0.13300
C322        C  0.49941928  0.33528770  0.27574256     0.00300
C323        C  0.45489372  0.31218037  0.24572254    -0.11800
C324        C  0.45989784  0.26110955  0.21802021     0.02800
C325        C  0.51330710  0.23702364  0.21271224    -0.11200
H326        H  0.58795949  0.32917162  0.29047426     0.08400
H327        H  0.41386142  0.32993738  0.24933704     0.06000
H328        H  0.51776813  0.19765558  0.19103360     0.05800
C329        C  0.74882022  0.95292057  0.27467682     0.02800
C330        C  0.80628785  0.96253034  0.27794627    -0.13300
C331        C  0.82872461  0.01627149  0.26617349     0.00300
C332        C  0.79387317  0.05939272  0.24762217    -0.11800
C333        C  0.73641506  0.05428738  0.25091955     0.02800
C334        C  0.71282217  0.99984762  0.26293935    -0.11200
H335        H  0.83346222  0.92854138  0.29198719     0.08400
H336        H  0.81199432  0.10065244  0.23788576     0.06000
H337        H  0.66822045  0.99413693  0.26334880     0.05800
C338        C  0.78909002  0.26457594  0.94530042     0.02800
C339        C  0.76788910  0.20919272  0.94108354    -0.13300
C340        C  0.72244088  0.19570719  0.97226851     0.00300
C341        C  0.72267807  0.21579008  0.02476489    -0.11800
C342        C  0.75595938  0.26302859  0.03923335     0.02800
C343        C  0.78583350  0.29135011  0.99681309    -0.11200
H344        H  0.77087957  0.18839711  0.90264626     0.08400
H345        H  0.69018800  0.20128607  0.05114425     0.06000
H346        H  0.80223193  0.33387853  0.00259201     0.05800
C347        C  0.79600953  0.58302934  0.25131428     0.02800
C348        C  0.82474604  0.53007698  0.24819858    -0.13300
C349        C  0.79503075  0.48051712  0.23047310     0.00300
C350        C  0.74087649  0.48809597  0.20976457    -0.11800
C351        C  0.71128285  0.53815646  0.21904577     0.02800
C352        C  0.73845950  0.58285631  0.24471497    -0.11200
H353        H  0.86817513  0.52743117  0.25973390     0.08400
H354        H  0.71983247  0.45280803  0.19029032     0.06000
H355        H  0.71531273  0.62057461  0.25463797     0.05800
C356        C  0.76781830  0.30762260  0.53621482     0.02800
C357        C  0.78219011  0.36298027  0.51835740    -0.13300
C358        C  0.77895090  0.37824943  0.46387999     0.00300
C359        C  0.74813278  0.34455964  0.42872352    -0.11800
C360        C  0.74292279  0.28619519  0.43997247     0.02800
C361        C  0.75124992  0.26731805  0.49532191    -0.11200
H362        H  0.80373834  0.39180282  0.54550498     0.08400
H363        H  0.74498222  0.35917435  0.38703689     0.06000
H364        H  0.74895320  0.22234570  0.50546429     0.05800
C365        C  0.29156903  0.51339850  0.20674660     0.02800
C366        C  0.31192452  0.52043503  0.15418202    -0.13300
C367        C  0.30082921  0.47906296  0.11531150     0.00300
C368        C  0.26842705  0.43172928  0.12861939    -0.11800
C369        C  0.25581965  0.41969313  0.18216926     0.02800
C370        C  0.26482679  0.46155619  0.22129123    -0.11200
H371        H  0.33678750  0.55742187  0.14353726     0.08400
H372        H  0.26126978  0.39927269  0.09847103     0.06000
H373        H  0.25264151  0.45344944  0.26251912     0.05800
C374        C  0.98591683  0.70636977  0.29008629     0.02800
C375        C  0.04321704  0.72567903  0.29350356    -0.13300
C376        C  0.08751367  0.68693316  0.28071918     0.00300
C377        C  0.07183855  0.63588856  0.25511810    -0.11800
C378        C  0.01640053  0.61916756  0.25070839     0.02800
C379        C  0.97567291  0.65046112  0.27453703    -0.11200
H380        H  0.05287115  0.76851121  0.30649304     0.08400
H381        H  0.10306010  0.60847578  0.23853532     0.06000
H382        H  0.93337278  0.63462193  0.27127114     0.05800
C383        C  0.37945899  0.72337263  0.97275006     0.02800
C384        C  0.42778784  0.75061707  0.99107224    -0.13300
C385        C  0.43471267  0.75975445  0.04573782     0.00300
C386        C  0.41140962  0.72084651  0.08141959    -0.11800
C387        C  0.35997367  0.69658117  0.06767814     0.02800
C388        C  0.34374026  0.69717138  0.01175653    -0.11200
H389        H  0.45047306  0.77820045  0.96349349     0.08400
H390        H  0.42343255  0.72454354  0.12331927     0.06000
H391        H  0.30171404  0.68589692  0.99999222     0.05800
C392        C  0.55183636  0.80743592  0.26027473     0.02800
C393        C  0.50870744  0.76877259  0.24211282    -0.13300
C394        C  0.45116749  0.78451379  0.24612796     0.00300
C395        C  0.43862582  0.83714486  0.26859301    -0.11800
C396        C  0.47958659  0.87471922  0.28579378     0.02800
C397        C  0.53535979  0.86059140  0.28038893    -0.11200
H398        H  0.51944162  0.72762769  0.22640134     0.08400
H399        H  0.39574192  0.84928223  0.27348860     0.06000
H400        H  0.56649114  0.89038027  0.29530970     0.05800
C401        C  0.23660486  0.75705238  0.56880591     0.02800
C402        C  0.19233526  0.72024274  0.58051486    -0.13300
C403        C  0.18708276  0.67149787  0.55002862     0.00300
C404        C  0.19727813  0.67706712  0.49525458    -0.11800
C405        C  0.22918355  0.72287925  0.47371426     0.02800
C406        C  0.25506738  0.75961689  0.51336617    -0.11200
H407        H  0.17864081  0.71798489  0.62165431     0.08400
H408        H  0.18753105  0.64005813  0.47142530     0.06000
H409        H  0.29016461  0.78616234  0.50248219     0.05800
C410        C  0.79903527  0.82630999  0.97893963     0.02800
C411        C  0.79564365  0.78903615  0.02518906    -0.13300
C412        C  0.77153538  0.80921511  0.07367155     0.00300
C413        C  0.75061865  0.86473502  0.07350468    -0.11800
C414        C  0.75454085  0.89979670  0.02852446     0.02800
C415        C  0.78519295  0.88343889  0.98478209    -0.11200
H416        H  0.80830731  0.74501453  0.02256346     0.08400
H417        H  0.72664921  0.87991952  0.10686072     0.06000
H418        H  0.78681859  0.91239985  0.95026816     0.05800
C419        C  0.25244052  0.18717021  0.52862325     0.02800
C420        C  0.19657617  0.17052787  0.53167301    -0.13300
C421        C  0.16732194  0.15109145  0.48653773     0.00300
C422        C  0.19808075  0.14279034  0.44008453    -0.11800
C423        C  0.24823534  0.17167549  0.43213913     0.02800
C424        C  0.27798967  0.19101163  0.47793121    -0.11200
H425        H  0.17546804  0.17565230  0.56930648     0.08400
H426        H  0.17992203  0.12061751  0.40688015     0.06000
H427        H  0.31864623  0.21027989  0.47425484     0.05800
C428        C  0.97683277  0.28966958  0.73318342     0.02800
C429        C  0.02452993  0.30407604  0.70074573    -0.13300
C430        C  0.07524436  0.27157530  0.70680088     0.00300
C431        C  0.07610841  0.22708910  0.74480626    -0.11800
C432        C  0.03633360  0.22508986  0.78427541     0.02800
C433        C  0.98481811  0.24937443  0.77472316    -0.11200
H434        H  0.02276989  0.34001688  0.67289257     0.08400
H435        H  0.11499955  0.20556666  0.75393873     0.06000
H436        H  0.95372964  0.24325032  0.80532048     0.05800
C437        C  0.25270750  0.96819697  0.75225143     0.02800
C438        C  0.27920374  0.02022440  0.73641133    -0.13300
C439        C  0.24686567  0.06745873  0.71658805     0.00300
C440        C  0.18921567  0.05778977  0.70721455    -0.11800
C441        C  0.16401180  0.00536139  0.72172608     0.02800
C442        C  0.19499924  0.96511217  0.75018316    -0.11200
H443        H  0.32401176  0.02353671  0.73860739     0.08400
H444        H  0.16443218  0.08998891  0.68658602     0.06000
H445        H  0.17422863  0.92634451  0.76378394     0.05800
C446        C  0.59264130  0.27934354  0.74233773     0.02800
C447        C  0.58640678  0.33087279  0.71389428    -0.13300
C448        C  0.53631898  0.34516927  0.68800475     0.00300
C449        C  0.48826789  0.31490599  0.70363145    -0.11800
C450        C  0.49068708  0.26677781  0.73781512     0.02800
C451        C  0.54392797  0.24715439  0.75572427    -0.11200
H452        H  0.62289541  0.35646279  0.70592891     0.08400
H453        H  0.44840599  0.32555889  0.68559204     0.06000
H454        H  0.54741321  0.20772797  0.77871215     0.05800
C455        C  0.35414391  0.54221739  0.77587486     0.02800
C456        C  0.41065470  0.53137762  0.78186130    -0.13300
C457        C  0.43303014  0.48039286  0.76469687     0.00300
C458        C  0.39684548  0.43743501  0.74668072    -0.11800
C459        C  0.33869500  0.44320189  0.74957595     0.02800
C460        C  0.31736184  0.49729212  0.76147894    -0.11200
H461        H  0.43813861  0.56414083  0.79764813     0.08400
H462        H  0.41411116  0.39768877  0.73417447     0.06000
H463        H  0.27293643  0.50396227  0.76109804     0.05800
C464        C  0.76243795  0.97254776  0.72165855     0.02800
C465        C  0.77288079  0.97883648  0.66646958    -0.13300
C466        C  0.75345982  0.02588301  0.63693898     0.00300
C467        C  0.72710805  0.06920715  0.66336861    -0.11800
C468        C  0.73397959  0.07405929  0.71906025     0.02800
C469        C  0.74697995  0.02292949  0.74977278    -0.11200
H470        H  0.79290933  0.94458935  0.64552061     0.08400
H471        H  0.71028661  0.10437541  0.63951593     0.06000
H472        H  0.74530327  0.02249049  0.79330534     0.05800
C473        C  0.03162208  0.72026424  0.77563327     0.02800
C474        C  0.08387191  0.73740412  0.75379190    -0.13300
C475        C  0.13225390  0.70264739  0.76180205     0.00300
C476        C  0.12726644  0.65179689  0.79340283    -0.11800
C477        C  0.07695774  0.63578601  0.81803774     0.02800
C478        C  0.03011763  0.66997632  0.80790946    -0.11200
H479        H  0.08701103  0.77710801  0.73120315     0.08400
H480        H  0.16343055  0.62532296  0.80033925     0.06000
H481        H  0.99188043  0.65797350  0.82743969     0.05800
C482        C  0.59766774  0.82714039  0.77155645     0.02800
C483        C  0.54957494  0.79781234  0.79240240    -0.13300
C484        C  0.49456235  0.81489801  0.77533494     0.00300
C485        C  0.48943241  0.85853995  0.73610108    -0.11800
C486        C  0.53540500  0.88735612  0.71567960     0.02800
C487        C  0.58861508  0.87248436  0.73431325    -0.11200
H488        H  0.55480853  0.76278999  0.82091248     0.08400
H489        H  0.44848373  0.87157845  0.72201358     0.06000
H490        H  0.62381215  0.89459216  0.71688024     0.05800
C491        C  0.86952261  0.60184889  0.81438844     0.02800
C492        C  0.85775607  0.55670402  0.77738851    -0.13300
C493        C  0.84191117  0.50164757  0.79837880     0.00300
C494        C  0.82677226  0.49862784  0.85323426    -0.11800
C495        C  0.83951665  0.54271995  0.88815368     0.02800
C496        C  0.87090737  0.58782928  0.86968296    -0.11200
H497        H  0.86124164  0.56397703  0.73441634     0.08400
H498        H  0.80341165  0.46253218  0.86889731     0.06000
H499        H  0.88323326  0.61873614  0.89973762     0.05800
C500        C  0.85078709  0.78415837  0.56941343     0.02800
C501        C  0.81351530  0.78459400  0.52415676    -0.13300
C502        C  0.83280428  0.76853551  0.47279846     0.00300
C503        C  0.88766515  0.75059937  0.46869410    -0.11800
C504        C  0.92310455  0.74996604  0.51336816     0.02800
C505        C  0.90676726  0.77393276  0.56139014    -0.11200
H506        H  0.76989116  0.79314505  0.52949868     0.08400
H507        H  0.90157026  0.73145974  0.43188755     0.06000
H508        H  0.93483987  0.77147918  0.59601186     0.05800
C509        C  0.93182022  0.99949337  0.27158943    -0.02100
C510        C  0.88508080  0.03148671  0.28575353     0.07600
C511        C  0.89134184  0.07497014  0.32429614    -0.02200
C512        C  0.94254638  0.08300799  0.35007740    -0.02200
C513        C  0.98241869  0.03947539  0.34804237     0.07700
C514        C  0.97991671  0.00161155  0.30463253    -0.02400
Br515      Br  0.04055245  0.95046367  0.29395126    -0.01000
Br516      Br  0.92906245  0.95194852  0.20905735    -0.01100
Br517      Br  0.95334121  0.15000224  0.39333664    -0.01000
Br518      Br  0.82920386  0.11825203  0.34989723    -0.01000
C519        C  0.19892654  0.99264267  0.51286641    -0.02100
C520        C  0.15752492  0.95029959  0.51165754     0.07600
C521        C  0.16800115  0.90249409  0.48107738    -0.02200
C522        C  0.19245370  0.91259395  0.43150937    -0.02200
C523        C  0.22746237  0.96140207  0.42495489     0.07700
C524        C  0.23611945  0.99699166  0.46979183    -0.02400
Br525      Br  0.29831769  0.04822941  0.47334510    -0.01000
Br526      Br  0.20663780  0.03845651  0.57550518    -0.01100
Br527      Br  0.16273494  0.86901360  0.37243946    -0.01000
Br528      Br  0.13270190  0.83071662  0.49840321    -0.01000
C529        C  0.82257404  0.08411841  0.51343076    -0.02100
C530        C  0.83516115  0.03169331  0.49090355     0.07600
C531        C  0.79718941  0.98661989  0.49895056    -0.02200
C532        C  0.76266967  0.98767542  0.54394551    -0.02200
C533        C  0.76833312  0.03352053  0.58000499     0.07700
C534        C  0.79664004  0.08369452  0.56291498    -0.02400
Br535      Br  0.81505427  0.14638518  0.60951339    -0.01000
Br536      Br  0.85320600  0.15357497  0.48524631    -0.01100
Br537      Br  0.71259340  0.92494935  0.55872279    -0.01000
Br538      Br  0.79732742  0.92229489  0.45218457    -0.01000
C539        C  0.00824670  0.00039144  0.69059259    -0.02100
C540        C  0.00611581  0.95476328  0.65453858     0.07600
C541        C  0.04960199  0.91550673  0.65695991    -0.02200
C542        C  0.10241793  0.93474896  0.67319044    -0.02200
C543        C  0.10811770  0.98679602  0.70153785     0.07700
C544        C  0.05958765  0.01685888  0.71370786    -0.02400
Br545      Br  0.06302036  0.08135802  0.75920413    -0.01000
Br546      Br  0.94286128  0.04603034  0.69854040    -0.01100
Br547      Br  0.16575929  0.89359535  0.64804935    -0.01000
Br548      Br  0.03927069  0.84040437  0.62754303    -0.01000
C549        C  0.48247199  0.84858014  0.07589106    -0.02100
C550        C  0.43305177  0.82023458  0.06105660     0.07600
C551        C  0.38304460  0.85223429  0.05358198    -0.02200
C552        C  0.38482162  0.91136406  0.05575120    -0.02200
C553        C  0.43563373  0.93883117  0.06209777     0.07700
C554        C  0.48322488  0.90821325  0.07791633    -0.02400
Br555      Br  0.55117016  0.94816584  0.09479505    -0.01000
Br556      Br  0.55100965  0.80760761  0.08398487    -0.01100
Br557      Br  0.31968125  0.95606177  0.03805577    -0.01000
Br558      Br  0.31249220  0.82174338  0.02961312    -0.01000
C559        C  0.21667553  0.09650071  0.99396470    -0.03300
C560        C  0.19695479  0.12727100  0.94886575     0.07600
C561        C  0.22071732  0.10717387  0.90182074    -0.02200
C562        C  0.27893674  0.10211274  0.90269480    -0.02200
C563        C  0.30697130  0.10074583  0.95376448     0.07700
C564        C  0.27460230  0.09508283  0.00088624    -0.02400
Br565      Br  0.30592799  0.09415512  0.07299110    -0.01000
Br566      Br  0.16678237  0.07248860  0.04870272    -0.01100
Br567      Br  0.31832394  0.10857186  0.83609203    -0.01000
Br568      Br  0.17800392  0.10854169  0.83640776    -0.01000
C569        C  0.62876124  0.95704803  0.96020942    -0.02100
C570        C  0.61984720  0.00872324  0.98838075     0.07600
C571        C  0.65755299  0.02483517  0.03016259    -0.02200
C572        C  0.70323327  0.99009570  0.04256122    -0.02200
C573        C  0.70842913  0.93781291  0.01697972     0.07700
C574        C  0.66817065  0.91924317  0.97969655    -0.02400
Br575      Br  0.66218288  0.83951795  0.95975701    -0.01000
Br576      Br  0.59042995  0.93389359  0.89410081    -0.01100
Br577      Br  0.75590961  0.01073764  0.09771453    -0.01000
Br578      Br  0.64779121  0.09234744  0.07220987    -0.01000
C579        C  0.60718285  0.13726113  0.88103589    -0.02100
C580        C  0.56339990  0.17416310  0.89326778     0.07600
C581        C  0.57696010  0.22565869  0.91807967    -0.02200
C582        C  0.62887542  0.23351194  0.94316755    -0.02200
C583        C  0.66837480  0.18872077  0.94311331     0.07700
C584        C  0.65838603  0.14189410  0.90908770    -0.02400
Br585      Br  0.71241911  0.08201245  0.90388587    -0.01000
Br586      Br  0.59654082  0.07991143  0.82734765    -0.01100
Br587      Br  0.64264183  0.30584222  0.97794143    -0.01000
Br588      Br  0.51931371  0.27966068  0.92734277    -0.01000
C589        C  0.08905730  0.27733092  0.85413086    -0.02100
C590        C  0.05706851  0.22840572  0.83967013     0.07600
C591        C  0.03628707  0.19143769  0.87987797    -0.02200
C592        C  0.04447231  0.20597105  0.93378711    -0.02200
C593        C  0.07311755  0.25655388  0.94610221     0.07700
C594        C  0.10314999  0.28646099  0.90744012    -0.02400
Br595      Br  0.14559043  0.35458529  0.92704755    -0.01000
Br596      Br  0.09420982  0.34470083  0.80880725    -0.01100
Br597      Br  0.00959977  0.16230064  0.99010316    -0.01000
Br598      Br  0.98547462  0.13024340  0.86226225    -0.01000
C599        C  0.03345139  0.18293631  0.12710391    -0.02100
C600        C  0.98585320  0.21744606  0.11696508     0.07600
C601        C  0.93457979  0.18682466  0.11454403    -0.02200
C602        C  0.93162281  0.13274709  0.14012371    -0.02200
C603        C  0.97525523  0.11738103  0.17503736     0.07700
C604        C  0.02608708  0.12784412  0.15000446    -0.02400
Br605      Br  0.08566803  0.07503059  0.16210558    -0.01000
Br606      Br  0.10470618  0.20481303  0.10271300    -0.01100
Br607      Br  0.86772956  0.08537809  0.13694491    -0.01000
Br608      Br  0.87275678  0.21110945  0.07177787    -0.01000
C609        C  0.02666378  0.49411856  0.88313193    -0.02100
C610        C  0.05223355  0.49491461  0.93541808     0.07600
C611        C  0.08892268  0.54103722  0.94698174    -0.02200
C612        C  0.09974296  0.58462387  0.90774506    -0.02200
C613        C  0.07237658  0.58488425  0.85669481     0.07700
C614        C  0.03601992  0.53887014  0.84497082    -0.02400
Br615      Br  0.99894731  0.53663220  0.77553606    -0.01000
Br616      Br  0.97908532  0.43123655  0.86148005    -0.01100
Br617      Br  0.15016888  0.64615511  0.92544921    -0.01000
Br618      Br  0.12041128  0.54861650  0.01856353    -0.01000
C619        C  0.96698399  0.54268086  0.12591836    -0.02100
C620        C  0.96410873  0.48631571  0.14580886     0.07600
C621        C  0.97168012  0.47504359  0.20109200    -0.02200
C622        C  0.99116896  0.51795092  0.23518553    -0.02200
C623        C  0.99841359  0.57338983  0.21468357     0.07700
C624        C  0.98311855  0.58662868  0.16076917    -0.02400
Br625      Br  0.98740660  0.66421475  0.13400010    -0.01000
Br626      Br  0.95522421  0.55834539  0.05002548    -0.01100
Br627      Br  0.01230524  0.50031950  0.30843840    -0.01000
Br628      Br  0.95983586  0.39916046  0.22813974    -0.01000
C629        C  0.36728183  0.51401623  0.98082313    -0.02100
C630        C  0.40744179  0.47047591  0.98028339     0.07600
C631        C  0.39940583  0.42297103  0.01453113    -0.02200
C632        C  0.37004373  0.42937243  0.06152431    -0.02200
C633        C  0.33417328  0.47590822  0.06631441     0.07700
C634        C  0.32895003  0.51541165  0.02321408    -0.02400
Br635      Br  0.26997951  0.56983941  0.02263502    -0.01000
Br636      Br  0.36430088  0.56967825  0.92327099    -0.01100
Br637      Br  0.38583463  0.37792472  0.12115783    -0.01000
Br638      Br  0.43017835  0.34998109  0.00004598    -0.01000
C639        C  0.58112149  0.59564562  0.14900551    -0.02100
C640        C  0.55401616  0.54367884  0.13953780     0.07600
C641        C  0.56483426  0.49856859  0.17584473    -0.02200
C642        C  0.61409625  0.49914686  0.20704472    -0.02200
C643        C  0.65258350  0.54451358  0.20018901     0.07700
C644        C  0.63437214  0.59468514  0.17245516    -0.02400
Br645      Br  0.68280001  0.65806062  0.15561230    -0.01000
Br646      Br  0.54986651  0.66522170  0.12067207    -0.01100
Br647      Br  0.62946644  0.43695584  0.25618266    -0.01000
Br648      Br  0.51614542  0.43348813  0.17567290    -0.01000
C649        C  0.57097794  0.42666540  0.81803903    -0.02100
C650        C  0.59294684  0.48073935  0.82821003     0.07600
C651        C  0.58004209  0.52348726  0.78990604    -0.02200
C652        C  0.53072734  0.51804580  0.75894983    -0.02200
C653        C  0.49395646  0.47210211  0.77094269     0.07700
C654        C  0.51563237  0.42444008  0.79982630    -0.02400
Br655      Br  0.46840087  0.36683592  0.83039884    -0.01000
Br656      Br  0.60923563  0.36128390  0.84681899    -0.01100
Br657      Br  0.51071434  0.57602552  0.70634721    -0.01000
Br658      Br  0.62535940  0.59113948  0.78654898    -0.01000
C659        C  0.76498138  0.51055453  0.01759486    -0.02100
C660        C  0.72576904  0.55484773  0.01401306     0.07600
C661        C  0.74119508  0.60525265  0.98736228    -0.02200
C662        C  0.77445487  0.59998519  0.94250629    -0.02200
C663        C  0.80784804  0.55065151  0.93778380     0.07700
C664        C  0.80692804  0.50861899  0.97900795    -0.02400
Br665      Br  0.85825054  0.44636940  0.97910549    -0.01000
Br666      Br  0.75694459  0.45033089  0.07057083    -0.01100
Br667      Br  0.75972767  0.65204511  0.88291621    -0.01000
Br668      Br  0.70380979  0.67589509  0.00153088    -0.01000
C669        C  0.23192619  0.51798609  0.57348300    -0.02100
C670        C  0.18479861  0.49632531  0.59941576     0.07600
C671        C  0.15463342  0.53493030  0.63023343    -0.02200
C672        C  0.15380275  0.59312185  0.61486188    -0.02200
C673        C  0.19168405  0.61347689  0.57612484     0.07700
C674        C  0.23610219  0.57694782  0.56253401    -0.02400
Br675      Br  0.30288823  0.60627250  0.52998184    -0.01000
Br676      Br  0.28397853  0.46535474  0.54419520    -0.01100
Br677      Br  0.09848245  0.64192141  0.64383653    -0.01000
Br678      Br  0.10982364  0.50628446  0.68802880    -0.01000
C679        C  0.05575546  0.23476768  0.52679583    -0.02100
C680        C  0.07141050  0.27372252  0.48481760     0.07600
C681        C  0.08709865  0.24967043  0.43538114    -0.02200
C682        C  0.09156191  0.19028858  0.43340436    -0.02200
C683        C  0.10603615  0.16124995  0.48111345     0.07700
C684        C  0.07659568  0.17877608  0.52637228    -0.02400
Br685      Br  0.07148202  0.12993806  0.58910461    -0.01000
Br686      Br  0.00297454  0.25328101  0.58091448    -0.01100
Br687      Br  0.08702790  0.14918895  0.36804551    -0.01000
Br688      Br  0.10768196  0.29372766  0.37274168    -0.01000
C689        C  0.91841672  0.39419868  0.40031951    -0.02100
C690        C  0.93158074  0.44962145  0.41442825     0.07600
C691        C  0.88845128  0.48734914  0.42615045    -0.02200
C692        C  0.83520455  0.46512161  0.43705262    -0.02200
C693        C  0.82853286  0.40548023  0.44072125     0.07700
C694        C  0.87220260  0.36995278  0.42421907    -0.02400
Br695      Br  0.88148568  0.29359913  0.45191972    -0.01000
Br696      Br  0.97515219  0.34709987  0.37130427    -0.01100
Br697      Br  0.77484811  0.51463513  0.45343352    -0.01000
Br698      Br  0.90476586  0.56742809  0.43105074    -0.01000
C699        C  0.98789902  0.61551386  0.56231522    -0.02100
C700        C  0.03023353  0.60674061  0.52385431     0.07600
C701        C  0.03860740  0.64885710  0.48267199    -0.02200
C702        C  0.00763276  0.69944383  0.48274747    -0.02200
C703        C  0.96272961  0.70348178  0.51755518     0.07700
C704        C  0.94991064  0.65825790  0.55295736    -0.02400
Br705      Br  0.87519406  0.64602088  0.57935180    -0.01000
Br706      Br  0.97504973  0.56943971  0.62727400    -0.01100
Br707      Br  0.02134729  0.75995219  0.43090249    -0.01000
Br708      Br  0.08433681  0.63638065  0.42104847    -0.01000
C709        C  0.57464586  0.30272621  0.58120963    -0.02100
C710        C  0.51918625  0.28398685  0.57062760     0.07600
C711        C  0.47607241  0.32504621  0.57611722    -0.02200
C712        C  0.48873230  0.37554929  0.60440638    -0.02200
C713        C  0.53854594  0.37656462  0.63434903     0.07700
C714        C  0.58258737  0.35680012  0.60370039    -0.02400
Br715      Br  0.65383504  0.39429817  0.60593179    -0.01000
Br716      Br  0.63801448  0.25455148  0.57427859    -0.01100
Br717      Br  0.43651279  0.43574079  0.61302918    -0.01000
Br718      Br  0.40187736  0.31452710  0.54756855    -0.01000
C719        C  0.43493249  0.36823848  0.34313633    -0.02100
C720        C  0.48816219  0.37522432  0.32175009     0.07600
C721        C  0.52782885  0.37184303  0.36336924    -0.02200
C722        C  0.52555983  0.32292458  0.39653248    -0.02200
C723        C  0.47465826  0.29109851  0.39751708     0.07700
C724        C  0.42659030  0.32033467  0.37760222    -0.02400
Br725      Br  0.35282867  0.30080405  0.39855248    -0.01000
Br726      Br  0.37634495  0.41788912  0.31898175    -0.01100
Br727      Br  0.58989716  0.30488914  0.44011665    -0.01000
Br728      Br  0.57130444  0.43733143  0.38278031    -0.01000
C729        C  0.46727370  0.02984995  0.32342697    -0.02100
C730        C  0.45228985  0.02428614  0.37784571     0.07600
C731        C  0.43751689  0.97032950  0.39918337    -0.02200
C732        C  0.44405372  0.92138471  0.36807464    -0.02200
C733        C  0.46390460  0.92653168  0.31507984     0.07700
C734        C  0.47148952  0.98103862  0.29165002    -0.02400
Br735      Br  0.48671249  0.98870582  0.21612774    -0.01000
Br736      Br  0.48444074  0.10417415  0.29336598    -0.01100
Br737      Br  0.42961461  0.84705824  0.39972372    -0.01000
Br738      Br  0.41408234  0.96213896  0.47281395    -0.01000
C739        C  0.50738665  0.98706086  0.68875023    -0.02100
C740        C  0.52744276  0.93330586  0.67403504     0.07600
C741        C  0.54007581  0.92365455  0.61960315    -0.02200
C742        C  0.53405808  0.96782357  0.58054177    -0.02200
C743        C  0.51302627  0.02136796  0.59521521     0.07700
C744        C  0.50192240  0.03116495  0.64979931    -0.02400
Br745      Br  0.48669331  0.10720901  0.67213845    -0.01000
Br746      Br  0.48655425  0.00011677  0.76222430    -0.01100
Br747      Br  0.55634287  0.95508916  0.50743761    -0.01000
Br748      Br  0.56232486  0.84869772  0.59802628    -0.01000
loop_ 
_geom_bond_atom_site_label_1 
_geom_bond_atom_site_label_2 
_geom_bond_distance 
_geom_bond_site_symmetry_2 
_ccdc_geom_bond_type 
O1           Ni9   1.902       .  S
O1           C11   1.279       .  A
O2           Ni9   1.919       .  S
O2           C12   1.279       .  A
O3           Ni9   1.898       .  S
O3           C13   1.277       .  A
O4           Ni9   1.891       .  S
O4           C14   1.277       .  A
O5          Ni10   1.908       .  S
O5           C14   1.278       .  A
O6          Ni10   1.925       .  S
O6           C13   1.282       .  A
O7          Ni10   1.937       .  S
O7           C12   1.287       .  A
O8          Ni10   1.933       .  S
O8           C11   1.283       .  A
Ni9         Ni10   2.385       .  S
C11         C723   1.488       .  S
C12         C743   1.491       .  S
C13         C730   1.469       .  S
C14         C710   1.481       .  S
O15         Ni23   1.852       .  S
O15          C25   1.265       .  A
O16         Ni23   1.884       .  S
O16          C26   1.271       .  A
O17         Ni23   1.908       .  S
O17          C27   1.279       .  A
O18         Ni23   1.907   1_655  S
O18          C28   1.282       .  A
O19         Ni24   1.896       .  S
O19          C28   1.274   1_455  A
O20         Ni24   1.903       .  S
O20          C27   1.280       .  A
O21         Ni24   1.936       .  S
O21          C26   1.287       .  A
O22         Ni24   1.923       .  S
O22          C25   1.281       .  A
Ni23        Ni24   2.381       .  S
C25         C700   1.478       .  S
C26         C680   1.491       .  S
C27         C670   1.484       .  S
C28         C690   1.455       .  S
O29         Ni37   1.915       .  S
O29          C39   1.280       .  A
O30         Ni37   1.905       .  S
O30          C40   1.283   1_556  A
O31         Ni37   1.918       .  S
O31          C41   1.281       .  A
O32         Ni37   1.902   1_554  S
O32          C42   1.279       .  A
O33         Ni38   1.902   1_554  S
O33          C42   1.280       .  A
O34         Ni38   1.902       .  S
O34          C41   1.281       .  A
O35         Ni38   1.896   1_554  S
O35          C40   1.275       .  A
O36         Ni38   1.899       .  S
O36          C39   1.279       .  A
Ni37        Ni38   2.382       .  S
C39         C630   1.485       .  S
C40         C660   1.478       .  S
C41         C650   1.484       .  S
C42         C640   1.477       .  S
O43         Ni51   1.932       .  S
O43          C53   1.287   1_455  A
O44         Ni51   1.964       .  S
O44          C54   1.292   1_554  A
O45         Ni51   1.879       .  S
O45          C55   1.273   1_455  A
O46         Ni51   1.859       .  S
O46          C56   1.267   1_554  A
O47         Ni52   1.904   1_456  S
O47          C56   1.283       .  A
O48         Ni52   1.923       .  S
O48          C55   1.280       .  A
O49         Ni52   1.925   1_556  S
O49          C54   1.280   1_655  A
O50         Ni52   1.905       .  S
O50          C53   1.277       .  A
Ni51        Ni52   2.387   1_455  S
C53         C600   1.502       .  S
C54         C610   1.527       .  S
C55         C620   1.455       .  S
C56         C593   1.430       .  S
O57         Ni65   1.919       .  S
O57          C67   1.282   1_554  A
O58         Ni65   1.920   1_556  S
O58          C68   1.283       .  A
O59         Ni65   1.889       .  S
O59          C69   1.271   1_545  A
O60         Ni65   1.887   1_556  S
O60          C70   1.280       .  A
O61         Ni66   1.907       .  S
O61          C70   1.278       .  A
O62         Ni66   1.900   1_565  S
O62          C69   1.283   1_556  A
O63         Ni66   1.870       .  S
O63          C68   1.271       .  A
O64         Ni66   1.847       .  S
O64          C67   1.263       .  A
Ni65        Ni66   2.389   1_554  S
C67         C570   1.471       .  S
C68         C563   1.462       .  S
C69         C553   1.443       .  S
C70         C580   1.479       .  S
O71         Ni77   1.943       .  S
O71          C92   1.275       .  A
O72         Ni95   1.930       .  S
O72          C81   1.292       .  A
O73         Ni77   1.886       .  S
O73         Ni95   1.913       .  S
O73         Ni89   1.957       .  S
O73          H96   0.966       .  S
C74          O91   1.303       .  A
C74          O83   1.271       .  A
C74         C482   1.520       .  S
O75         Ni94   1.917       .  S
O75          C81   1.270       .  A
O76         Ni94   1.920       .  S
O76          C78   1.277       .  A
Ni77         O80   1.927       .  S
Ni77         O82   1.903       .  S
C78          O88   1.287       .  A
C78         C464   1.512       .  S
O79         Ni95   2.001       .  S
O79          C85   1.298       .  A
O80          C85   1.275       .  A
C81         C500   1.483       .  S
O82          C84   1.278       .  A
O83         Ni94   1.917       .  S
C84          O90   1.281       .  A
C84         C491   1.508       .  S
C85         C473   1.523   1_655  S
H86          O87   0.965       .  S
O87         Ni95   1.943       .  S
O87         Ni89   1.894       .  S
O87         Ni94   1.871       .  S
O88         Ni89   1.983       .  S
Ni89         O93   1.927       .  S
Ni89         O91   2.023       .  S
O90         Ni95   1.966       .  S
C92          O93   1.291       .  A
C92         C410   1.500       .  S
O97        Ni103   1.913       .  S
O97         C118   1.263       .  A
O98        Ni121   1.898       .  S
O98         C107   1.279       .  A
O99        Ni103   1.883       .  S
O99        Ni121   1.890       .  S
O99        Ni115   1.902       .  S
O99         H122   0.966       .  S
C100        O117   1.266       .  A
C100        O109   1.284       .  A
C100        C383   1.487       .  S
O101       Ni120   1.970       .  S
O101        C107   1.281       .  A
O102       Ni120   1.910       .  S
O102        C104   1.275       .  A
Ni103       O106   1.922       .  S
Ni103       O108   1.947       .  S
C104        O114   1.292       .  A
C104        C484   1.515       .  S
O105       Ni121   1.993       .  S
O105        C111   1.296       .  A
O106        C111   1.275       .  A
C107        C437   1.496       .  S
O108        C110   1.277       .  A
O109       Ni120   1.947       .  S
C110        O116   1.278       .  A
C110        C475   1.524       .  S
C111        C401   1.502       .  S
H112        O113   0.966       .  S
O113       Ni121   1.936       .  S
O113       Ni115   1.914       .  S
O113       Ni120   1.900       .  S
O114       Ni115   2.001       .  S
Ni115       O119   1.908       .  S
Ni115       O117   1.915       .  S
O116       Ni121   1.968       .  S
C118        O119   1.276       .  A
C118        C455   1.472       .  S
O123       Ni129   1.930       .  S
O123        C144   1.275       .  A
O124       Ni147   1.969       .  S
O124        C133   1.287       .  A
O125       Ni129   1.902       .  S
O125       Ni147   1.879       .  S
O125       Ni141   1.921       .  S
O125        H148   0.965       .  S
C126        O143   1.274       .  A
C126        O135   1.286       .  A
C126        C493   1.513       .  S
O127       Ni146   1.951       .  S
O127        C133   1.283       .  A
O128       Ni146   1.942       .  S
O128        C130   1.273       .  A
Ni129       O132   1.938       .  S
Ni129       O134   1.927       .  S
C130        O140   1.291       .  A
C130        C428   1.523       .  S
O131       Ni147   1.957       .  S
O131        C137   1.303       .  A
O132        C137   1.281       .  A
C133        C356   1.526       .  S
O134        C136   1.266       .  A
O135       Ni146   1.984       .  S
C136        O142   1.282       .  A
C136        C446   1.502       .  S
C137        C468   1.508       .  S
H138        O139   0.966       .  S
O139       Ni147   1.953       .  S
O139       Ni141   1.905       .  S
O139       Ni146   1.923       .  S
O140       Ni141   1.958       .  S
Ni141       O145   1.957       .  S
Ni141       O143   1.894       .  S
O142       Ni147   1.947       .  S
C144        O145   1.276       .  A
C144        C338   1.496       .  S
O149       Ni155   1.948       .  S
O149        C170   1.272       .  A
O150       Ni173   1.938       .  S
O150        C159   1.274       .  A
O151       Ni155   1.941       .  S
O151       Ni173   1.920       .  S
O151       Ni167   1.934       .  S
O151        H174   0.966       .  S
C152        O169   1.284       .  A
C152        O161   1.282       .  A
C152        C311   1.483       .  S
O153       Ni172   1.968       .  S
O153        C159   1.278       .  A
O154       Ni172   1.938       .  S
O154        C156   1.272       .  A
Ni155       O158   1.947       .  S
Ni155       O160   1.941       .  S
C156        O166   1.264       .  A
C156        C459   1.495       .  S
O157       Ni173   1.878       .  S
O157        C163   1.264       .  A
O158        C163   1.275       .  A
C159        C430   1.515       .  S
O160        C162   1.279       .  A
O161       Ni172   1.956       .  S
C162        O168   1.287       .  A
C162        C439   1.522       .  S
C163        C419   1.463       .  S
H164        O165   0.967       .  S
O165       Ni173   1.905       .  S
O165       Ni167   1.911       .  S
O165       Ni172   1.941       .  S
O166       Ni167   1.901       .  S
Ni167       O171   1.928       .  S
Ni167       O169   1.929       .  S
O168       Ni173   1.972       .  S
C170        O171   1.271       .  A
C170        C450   1.505       .  S
O175       Ni181   1.953       .  S
O175        C196   1.278       .  A
O176       Ni199   1.915       .  S
O176        C185   1.280       .  A
O177       Ni181   1.913       .  S
O177       Ni199   1.908       .  S
O177       Ni193   1.938       .  S
O177        H200   0.965       .  S
C178        O195   1.288       .  A
C178        O187   1.270       .  A
C178        C374   1.508       .  S
O179       Ni198   1.924       .  S
O179        C185   1.271       .  A
O180       Ni198   1.958       .  S
O180        C182   1.283       .  A
Ni181       O184   1.935       .  S
Ni181       O186   1.929       .  S
C182        O192   1.277       .  A
C182        C347   1.491       .  S
O183       Ni199   1.991       .  S
O183        C189   1.292       .  A
O184        C189   1.281       .  A
C185        C412   1.499       .  S
O186        C188   1.274       .  A
O187       Ni198   1.932       .  S
C188        O194   1.275       .  A
C188        C329   1.485       .  S
C189        C392   1.525       .  S
H190        O191   0.966       .  S
O191       Ni199   1.964       .  S
O191       Ni193   1.907       .  S
O191       Ni198   1.922       .  S
O192       Ni193   1.927       .  S
Ni193       O197   1.896       .  S
Ni193       O195   1.982       .  S
O194       Ni199   1.943       .  S
C196        O197   1.274       .  A
C196        C502   1.487       .  S
O201       Ni207   1.937       .  S
O201        C222   1.274       .  A
O202       Ni225   1.895       .  S
O202        C211   1.277       .  A
O203       Ni207   1.893       .  S
O203       Ni225   1.908       .  S
O203       Ni219   1.940       .  S
O203        H226   0.966       .  S
C204        O221   1.302       .  A
C204        O213   1.282       .  A
C204        C405   1.539       .  S
O205       Ni224   1.939       .  S
O205        C211   1.279       .  A
O206       Ni224   1.926       .  S
O206        C208   1.278       .  A
Ni207       O210   1.938       .  S
Ni207       O212   1.938       .  S
C208        O218   1.285       .  A
C208        C376   1.532       .  S
O209       Ni225   1.948       .  S
O209        C215   1.272       .  A
O210        C215   1.267       .  A
C211        C365   1.477       .  S
O212        C214   1.281       .  A
O213       Ni224   1.915       .  S
C214        O220   1.289       .  A
C214        C394   1.507       .  S
C215        C387   1.496       .  S
H216        O217   0.967       .  S
O217       Ni225   1.909       .  S
O217       Ni219   1.893       .  S
O217       Ni224   1.867       .  S
O218       Ni219   1.998       .  S
Ni219       O223   1.913       .  S
Ni219       O221   2.013       .  S
O220       Ni225   1.976       .  S
C222        O223   1.286       .  A
C222        C267   1.484       .  S
O227       Ni233   1.931       .  S
O227        C248   1.272       .  A
O228       Ni251   1.961       .  S
O228        C237   1.279       .  A
O229       Ni233   1.909       .  S
O229       Ni251   1.908       .  S
O229       Ni245   1.952       .  S
O229        H252   0.967       .  S
C230        O247   1.295       .  A
C230        O239   1.282       .  A
C230        C333   1.487       .  S
O231       Ni250   1.920       .  S
O231        C237   1.274       .  A
O232       Ni250   1.922       .  S
O232        C234   1.267       .  A
Ni233       O236   1.959       .  S
Ni233       O238   1.926       .  S
C234        O244   1.281       .  A
C234        C320   1.504       .  S
O235       Ni251   1.947       .  S
O235        C241   1.289       .  A
O236        C241   1.287       .  A
C237        C342   1.507       .  S
O238        C240   1.267       .  A
O239       Ni250   1.930       .  S
C240        O246   1.283       .  A
C240        C302   1.508       .  S
C241        C349   1.506       .  S
H242        O243   0.966       .  S
O243       Ni251   1.941       .  S
O243       Ni245   1.905       .  S
O243       Ni250   1.900       .  S
O244       Ni245   1.954       .  S
Ni245       O249   1.977       .  S
Ni245       O247   1.963       .  S
O246       Ni251   1.966       .  S
C248        O249   1.279       .  A
C248        C360   1.512       .  S
O253       Ni261   1.920       .  S
O253        C263   1.278   1_545  A
O254       Ni261   1.910   1_655  S
O254        C264   1.283       .  A
O255       Ni261   1.891   1_655  S
O255        C265   1.276   1_545  A
O256       Ni261   1.895       .  S
O256        C266   1.275       .  A
O257       Ni262   1.917       .  S
O257        C266   1.282   1_665  A
O258       Ni262   1.914       .  S
O258        C265   1.280       .  A
O259       Ni262   1.897       .  S
O259        C264   1.276   1_565  A
O260       Ni262   1.892   1_455  S
O260        C263   1.280       .  A
Ni261      Ni262   2.383   1_445  S
C263        C520   1.480       .  S
C264        C530   1.480       .  S
C265        C540   1.470   1_655  S
C266        C513   1.472   1_455  S
C267        C268   1.427       .  A
C267        C272   1.389       .  A
C268        C269   1.426   1_565  A
C268        H273   1.082       .  S
C269        C283   1.502       .  S
C269        C270   1.412       .  A
C270        C271   1.405   1_545  A
C270        H274   1.073       .  S
C271        C523   1.484       .  S
C271        C272   1.380       .  A
C272        H275   1.086       .  S
O276       Ni282   1.947       .  S
O276        C297   1.270       .  A
O277       Ni300   1.926       .  S
O277        C286   1.270       .  A
O278       Ni282   1.944       .  S
O278       Ni300   1.918       .  S
O278       Ni294   1.918       .  S
O278        H301   0.966       .  S
C279        O296   1.284       .  A
C279        O288   1.279       .  A
C279        C423   1.487       .  S
O280       Ni299   1.933       .  S
O280        C286   1.269       .  A
O281       Ni299   1.915       .  S
O281        C283   1.272       .  A
Ni282       O285   1.955       .  S
Ni282       O287   1.897       .  S
C283        O293   1.290       .  A
O284       Ni300   1.937       .  S
O284        C290   1.282       .  A
O285        C290   1.280       .  A
C286        C324   1.492       .  S
O287        C289   1.259       .  A
O288       Ni299   1.943       .  S
C289        O295   1.274       .  A
C289        C369   1.466       .  S
C290        C315   1.487       .  S
H291        O292   0.966       .  S
O292       Ni300   1.936       .  S
O292       Ni294   1.913       .  S
O292       Ni299   1.927       .  S
O293       Ni294   1.977       .  S
Ni294       O298   1.945       .  S
Ni294       O296   1.923       .  S
O295       Ni300   1.935       .  S
C297        O298   1.285       .  A
C297        C304   1.514       .  S
C302        C303   1.434       .  A
C302        C307   1.400       .  A
C303        C304   1.433   1_655  A
C303        H308   1.076   1_655  S
C304        C305   1.398       .  A
C305        C306   1.399   1_455  A
C305        H309   1.079       .  S
C306        C603   1.512       .  S
C306        C307   1.407       .  A
C307        H310   1.082       .  S
C311        C312   1.395       .  A
C311        C316   1.428       .  A
C312        C313   1.396       .  A
C312        H317   1.080       .  S
C313        C560   1.514       .  S
C313        C314   1.395   1_556  A
C314        C315   1.395       .  A
C314        H318   1.076       .  S
C315        C316   1.428   1_554  A
C316        H319   1.082       .  S
C320        C321   1.405       .  A
C320        C325   1.425       .  A
C321        C322   1.415       .  A
C321        H326   1.081       .  S
C322        C720   1.518       .  S
C322        C323   1.405       .  A
C323        C324   1.397       .  A
C323        H327   1.082       .  S
C324        C325   1.419       .  A
C325        H328   1.083       .  S
C329        C330   1.403       .  A
C329        C334   1.430       .  A
C330        C331   1.396   1_565  A
C330        H335   1.085       .  S
C331        C510   1.477       .  S
C331        C332   1.387       .  A
C332        C333   1.393       .  A
C332        H336   1.084       .  S
C333        C334   1.423   1_545  A
C334        H337   1.082       .  S
C338        C339   1.396       .  A
C338        C343   1.437       .  A
C339        C340   1.384       .  A
C339        H344   1.082       .  S
C340        C583   1.488       .  S
C340        C341   1.392   1_556  A
C341        C342   1.410       .  A
C341        H345   1.079       .  S
C342        C343   1.437   1_554  A
C343        H346   1.080   1_556  S
C347        C348   1.430       .  A
C347        C352   1.394       .  A
C348        C349   1.431       .  A
C348        H353   1.082       .  S
C349        C350   1.406       .  A
C350        C351   1.403       .  A
C350        H354   1.083       .  S
C351        C643   1.490       .  S
C351        C352   1.388       .  A
C352        H355   1.083       .  S
C356        C357   1.408       .  A
C356        C361   1.446       .  A
C357        C358   1.394       .  A
C357        H362   1.085       .  S
C358        C693   1.472       .  S
C358        C359   1.388       .  A
C359        C360   1.397       .  A
C359        H363   1.086       .  S
C360        C361   1.447       .  A
C361        H364   1.081       .  S
C365        C366   1.409       .  A
C365        C370   1.416       .  A
C366        C367   1.400       .  A
C366        H371   1.082       .  S
C367        C633   1.473       .  S
C367        C368   1.391       .  A
C368        C369   1.393       .  A
C368        H372   1.086       .  S
C369        C370   1.404       .  A
C370        H373   1.083       .  S
C374        C375   1.451   1_655  A
C374        C379   1.391       .  A
C375        C376   1.450       .  A
C375        H380   1.082       .  S
C376        C377   1.409       .  A
C377        C378   1.392       .  A
C377        H381   1.085       .  S
C378        C623   1.466   1_455  S
C378        C379   1.378   1_455  A
C379        H382   1.084       .  S
C383        C384   1.396       .  A
C383        C388   1.435   1_556  A
C384        C385   1.384   1_556  A
C384        H389   1.086       .  S
C385        C550   1.475       .  S
C385        C386   1.384       .  A
C386        C387   1.399       .  A
C386        H390   1.079       .  S
C387        C388   1.435       .  A
C388        H391   1.081   1_554  S
C392        C393   1.444       .  A
C392        C397   1.412       .  A
C393        C394   1.444       .  A
C393        H398   1.081       .  S
C394        C395   1.400       .  A
C395        C396   1.384       .  A
C395        H399   1.084       .  S
C396        C733   1.481       .  S
C396        C397   1.396       .  A
C397        H400   1.085       .  S
C401        C402   1.399       .  A
C401        C406   1.454       .  A
C402        C403   1.384       .  A
C402        H407   1.079       .  S
C403        C673   1.501       .  S
C403        C404   1.390       .  A
C404        C405   1.419       .  A
C404        H408   1.080       .  S
C405        C406   1.447       .  A
C406        H409   1.082       .  S
C410        C411   1.435   1_556  A
C410        C415   1.393       .  A
C411        C412   1.434       .  A
C411        H416   1.082       .  S
C412        C413   1.400       .  A
C413        C414   1.380       .  A
C413        H417   1.084       .  S
C414        C573   1.452       .  S
C414        C415   1.385   1_554  A
C415        H418   1.086       .  S
C419        C420   1.402       .  A
C419        C424   1.412       .  A
C420        C421   1.393       .  A
C420        H425   1.080       .  S
C421        C683   1.501       .  S
C421        C422   1.399       .  A
C422        C423   1.396       .  A
C422        H426   1.066       .  S
C423        C424   1.412       .  A
C424        H427   1.080       .  S
C428        C429   1.450   1_655  A
C428        C433   1.399       .  A
C429        C430   1.450       .  A
C429        H434   1.082       .  S
C430        C431   1.395       .  A
C431        C432   1.383       .  A
C431        H435   1.087       .  S
C432        C590   1.457       .  S
C432        C433   1.385   1_455  A
C433        H436   1.084       .  S
C437        C438   1.425   1_565  A
C437        C442   1.392       .  A
C438        C439   1.435       .  A
C438        H443   1.083       .  S
C439        C440   1.422       .  A
C440        C441   1.411       .  A
C440        H444   1.083       .  S
C441        C543   1.493   1_545  S
C441        C442   1.385   1_545  A
C442        H445   1.086       .  S
C446        C447   1.397       .  A
C446        C451   1.432       .  A
C447        C448   1.398       .  A
C447        H452   1.080       .  S
C448        C713   1.513       .  S
C448        C449   1.411       .  A
C449        C450   1.402       .  A
C449        H453   1.082       .  S
C450        C451   1.428       .  A
C451        H454   1.082       .  S
C455        C456   1.392       .  A
C455        C460   1.417       .  A
C456        C457   1.391       .  A
C456        H461   1.084       .  S
C457        C653   1.488       .  S
C457        C458   1.400       .  A
C458        C459   1.412       .  A
C458        H462   1.076       .  S
C459        C460   1.410       .  A
C460        H463   1.083       .  S
C464        C465   1.402       .  A
C464        C469   1.437   1_565  A
C465        C466   1.394   1_565  A
C465        H470   1.085       .  S
C466        C533   1.472       .  S
C466        C467   1.383       .  A
C467        C468   1.395       .  A
C467        H471   1.084       .  S
C468        C469   1.444       .  A
C469        H472   1.082       .  S
C473        C474   1.432       .  A
C473        C478   1.416       .  A
C474        C475   1.437       .  A
C474        H479   1.082       .  S
C475        C476   1.422       .  A
C476        C477   1.413       .  A
C476        H480   1.084       .  S
C477        C613   1.524       .  S
C477        C478   1.407       .  A
C478        H481   1.082   1_455  S
C482        C483   1.443       .  A
C482        C487   1.413       .  A
C483        C484   1.442       .  A
C483        H488   1.082       .  S
C484        C485   1.406       .  A
C485        C486   1.392       .  A
C485        H489   1.086       .  S
C486        C740   1.492       .  S
C486        C487   1.400       .  A
C487        H490   1.084       .  S
C491        C492   1.435       .  A
C491        C496   1.406       .  A
C492        C493   1.436       .  A
C492        H497   1.082       .  S
C493        C494   1.416       .  A
C494        C495   1.388       .  A
C494        H498   1.084       .  S
C495        C663   1.476       .  S
C495        C496   1.373       .  A
C496        H499   1.084       .  S
C500        C501   1.425       .  A
C500        C505   1.391       .  A
C501        C502   1.422       .  A
C501        H506   1.083       .  S
C502        C503   1.397       .  A
C503        C504   1.387       .  A
C503        H507   1.084       .  S
C504        C703   1.456       .  S
C504        C505   1.390       .  A
C505        H508   1.085       .  S
C509        C510   1.411   1_565  A
C509        C514   1.409   1_565  A
C509       Br516   1.925       .  S
C510        C511   1.414       .  A
C511        C512   1.393       .  A
C511       Br518   1.938       .  S
C512        C513   1.410       .  A
C512       Br517   1.930       .  S
C513        C514   1.407       .  A
C514       Br515   1.923   1_645  S
C519        C520   1.402       .  A
C519        C524   1.410       .  A
C519       Br526   1.909   1_565  S
C520        C521   1.391       .  A
C521        C522   1.390       .  A
C521       Br528   1.926       .  S
C522        C523   1.425       .  A
C522       Br527   1.924       .  S
C523        C524   1.413       .  A
C524       Br525   1.915   1_565  S
C529        C530   1.396       .  A
C529        C534   1.388       .  A
C529       Br536   1.910       .  S
C530        C531   1.407   1_545  A
C531        C532   1.405       .  A
C531       Br538   1.918       .  S
C532        C533   1.414   1_565  A
C532       Br537   1.930       .  S
C533        C534   1.418       .  A
C534       Br535   1.928       .  S
C539        C540   1.405   1_545  A
C539        C544   1.408       .  A
C539       Br546   1.927   1_455  S
C540        C541   1.400       .  A
C541        C542   1.401       .  A
C541       Br548   1.929       .  S
C542        C543   1.423       .  A
C542       Br547   1.931       .  S
C543        C544   1.410   1_565  A
C544       Br545   1.902       .  S
C549        C550   1.405       .  A
C549        C554   1.400       .  A
C549       Br556   1.923       .  S
C550        C551   1.433       .  A
C551        C552   1.389       .  A
C551       Br558   1.927       .  S
C552        C553   1.387       .  A
C552       Br557   1.935       .  S
C553        C554   1.405       .  A
C554       Br555   1.923       .  S
C559        C560   1.400       .  A
C559        C564   1.404   1_556  A
C559       Br566   1.906   1_556  S
C560        C561   1.400       .  A
C561        C562   1.409       .  A
C561       Br568   1.906       .  S
C562        C563   1.425       .  A
C562       Br567   1.924       .  S
C563        C564   1.421   1_556  A
C564       Br565   1.929       .  S
C569        C570   1.428   1_565  A
C569        C574   1.380       .  A
C569       Br576   1.950       .  S
C570        C571   1.420   1_556  A
C571        C572   1.402   1_545  A
C571       Br578   1.928       .  S
C572        C573   1.397       .  A
C572       Br577   1.915   1_565  S
C573        C574   1.400   1_554  A
C574       Br575   1.945       .  S
C579        C580   1.410       .  A
C579        C584   1.410       .  A
C579       Br586   1.920       .  S
C580        C581   1.398       .  A
C581        C582   1.399       .  A
C581       Br588   1.907       .  S
C582        C583   1.423       .  A
C582       Br587   1.938       .  S
C583        C584   1.412       .  A
C584       Br585   1.930       .  S
C589        C590   1.424       .  A
C589        C594   1.379       .  A
C589       Br596   1.929       .  S
C590        C591   1.408       .  A
C591        C592   1.396       .  A
C591       Br598   1.929   1_455  S
C592        C593   1.403       .  A
C592       Br597   1.921       .  S
C593        C594   1.390       .  A
C594       Br595   1.953       .  S
C599        C600   1.426   1_455  A
C599        C604   1.414       .  A
C599       Br606   1.896       .  S
C600        C601   1.425       .  A
C601        C602   1.411       .  A
C601       Br608   1.899       .  S
C602        C603   1.396       .  A
C602       Br607   1.893       .  S
C603        C604   1.402   1_655  A
C604       Br605   1.920       .  S
C609        C610   1.427       .  A
C609        C614   1.422       .  A
C609       Br616   1.937   1_455  S
C610        C611   1.421       .  A
C611        C612   1.426       .  A
C611       Br618   1.929   1_556  S
C612        C613   1.417       .  A
C612       Br617   1.930       .  S
C613        C614   1.415       .  A
C614       Br615   1.928   1_455  S
C619        C620   1.405       .  A
C619        C624   1.404       .  A
C619       Br626   1.929       .  S
C620        C621   1.402       .  A
C621        C622   1.398       .  A
C621       Br628   1.913       .  S
C622        C623   1.399       .  A
C622       Br627   1.919   1_655  S
C623        C624   1.412       .  A
C624       Br625   1.929       .  S
C629        C630   1.413       .  A
C629        C634   1.414   1_556  A
C629       Br636   1.920       .  S
C630        C631   1.405   1_556  A
C631        C632   1.386       .  A
C631       Br638   1.913       .  S
C632        C633   1.405       .  A
C632       Br637   1.929       .  S
C633        C634   1.408       .  A
C634       Br635   1.918       .  S
C639        C640   1.399       .  A
C639        C644   1.400       .  A
C639       Br646   1.920       .  S
C640        C641   1.402       .  A
C641        C642   1.406       .  A
C641       Br648   1.917       .  S
C642        C643   1.416       .  A
C642       Br647   1.920       .  S
C643        C644   1.422       .  A
C644       Br645   1.928       .  S
C649        C650   1.395       .  A
C649        C654   1.401       .  A
C649       Br656   1.917       .  S
C650        C651   1.403       .  A
C651        C652   1.409       .  A
C651       Br658   1.920       .  S
C652        C653   1.421       .  A
C652       Br657   1.928       .  S
C653        C654   1.416       .  A
C654       Br655   1.916       .  S
C659        C660   1.411       .  A
C659        C664   1.407   1_554  A
C659       Br666   1.925       .  S
C660        C661   1.396   1_554  A
C661        C662   1.391       .  A
C661       Br668   1.932   1_556  S
C662        C663   1.422       .  A
C662       Br667   1.932       .  S
C663        C664   1.410       .  A
C664       Br665   1.921       .  S
C669        C670   1.403       .  A
C669        C674   1.408       .  A
C669       Br676   1.927       .  S
C670        C671   1.409       .  A
C671        C672   1.411       .  A
C671       Br678   1.921       .  S
C672        C673   1.413       .  A
C672       Br677   1.921       .  S
C673        C674   1.425       .  A
C674       Br675   1.931       .  S
C679        C680   1.429       .  A
C679        C684   1.410       .  A
C679       Br686   1.924       .  S
C680        C681   1.417       .  A
C681        C682   1.399       .  A
C681       Br688   1.923       .  S
C682        C683   1.397       .  A
C682       Br687   1.901       .  S
C683        C684   1.408       .  A
C684       Br685   1.923       .  S
C689        C690   1.384       .  A
C689        C694   1.385       .  A
C689       Br696   1.922       .  S
C690        C691   1.408       .  A
C691        C692   1.410       .  A
C691       Br698   1.920       .  S
C692        C693   1.408       .  A
C692       Br697   1.922       .  S
C693        C694   1.418       .  A
C694       Br695   1.921       .  S
C699        C700   1.428   1_655  A
C699        C704   1.377       .  A
C699       Br706   1.954       .  S
C700        C701   1.426       .  A
C701        C702   1.407       .  A
C701       Br708   1.929       .  S
C702        C703   1.402   1_455  A
C702       Br707   1.931       .  S
C703        C704   1.402       .  A
C704       Br705   1.945       .  S
C709        C710   1.425       .  A
C709        C714   1.404       .  A
C709       Br716   1.919       .  S
C710        C711   1.432       .  A
C711        C712   1.414       .  A
C711       Br718   1.927       .  S
C712        C713   1.401       .  A
C712       Br717   1.916       .  S
C713        C714   1.403       .  A
C714       Br715   1.923       .  S
C719        C720   1.405       .  A
C719        C724   1.416       .  A
C719       Br726   1.919       .  S
C720        C721   1.396       .  A
C721        C722   1.402       .  A
C721       Br728   1.915       .  S
C722        C723   1.431       .  A
C722       Br727   1.920       .  S
C723        C724   1.427       .  A
C724       Br725   1.911       .  S
C729        C730   1.408       .  A
C729        C734   1.405   1_545  A
C729       Br736   1.930       .  S
C730        C731   1.409   1_545  A
C731        C732   1.405       .  A
C731       Br738   1.929       .  S
C732        C733   1.411       .  A
C732       Br737   1.932       .  S
C733        C734   1.408       .  A
C734       Br735   1.922       .  S
C739        C740   1.409       .  A
C739        C744   1.410   1_565  A
C739       Br746   1.930   1_565  S
C740        C741   1.412       .  A
C741        C742   1.414       .  A
C741       Br748   1.928       .  S
C742        C743   1.413   1_565  A
C742       Br747   1.930       .  S
C743        C744   1.408       .  A
C744       Br745   1.916       .  S
