geometry optimzed in LAMMPS
_audit_creation_date              2020-11-30 
_audit_creation_method            'lammps2cif' 
_symmetry_space_group_name_H-M    'P1' 
_symmetry_Int_Tables_number       1 
_symmetry_cell_setting            triclinic 
loop_ 
_symmetry_equiv_pos_as_xyz 
  x,y,z 
_cell_length_a                    32.67664915 
_cell_length_b                    32.64210905291877 
_cell_length_c                    36.27377390162825 
_cell_angle_alpha                 90.00258946527038 
_cell_angle_beta                  89.99789065427541 
_cell_angle_gamma                 89.9992337886736 
loop_ 
_atom_site_label 
_atom_site_type_symbol 
_atom_site_fract_x 
_atom_site_fract_y 
_atom_site_fract_z 
_atom_site_charge 
N1          N  0.36978139  0.43753985  0.74940435    -0.36500
N2          N  0.36922495  0.37322645  0.69271670    -0.57100
N3          N  0.37994013  0.31085565  0.74970137    -0.36500
N4          N  0.38009883  0.37515489  0.80641702    -0.57100
C5          C  0.37004567  0.46125402  0.71874359     0.27100
C6          C  0.37636367  0.46237904  0.77880155     0.27100
C7          C  0.37311385  0.28601934  0.72035883     0.27100
C8          C  0.37968032  0.28715021  0.78036056     0.27100
C9          C  0.36245345  0.40607245  0.67081659     0.35700
C10         C  0.36555738  0.33963712  0.67110838     0.35700
C11         C  0.38388752  0.40873620  0.82802430     0.35700
C12         C  0.38728286  0.34233338  0.82823603     0.35700
C13         C  0.37599004  0.50179730  0.72893667    -0.21800
C14         C  0.37931285  0.50258254  0.76663382    -0.21800
C15         C  0.37005622  0.24582723  0.73255466    -0.21800
C16         C  0.37353520  0.24662381  0.77022658    -0.21800
C17         C  0.35370175  0.39315782  0.63525114    -0.22800
C18         C  0.35574075  0.35132227  0.63540977    -0.22800
C19         C  0.39408230  0.39705747  0.86363451    -0.22800
C20         C  0.39632226  0.35524977  0.86373785    -0.22800
C21         C  0.36501863  0.44770321  0.68178113    -0.18200
C22         C  0.38023420  0.45002490  0.81623655    -0.18200
C23         C  0.38486958  0.30070690  0.81727699    -0.18200
C24         C  0.36919375  0.29835638  0.68294434    -0.18200
H25         H  0.37814917  0.02846623  0.71095318     0.14700
H26         H  0.38397292  0.03011397  0.78262483     0.14700
H27         H  0.36518682  0.21845479  0.71638595     0.14700
H28         H  0.37134854  0.22009955  0.78798912     0.14700
H29         H  0.34601128  0.41178174  0.61157024     0.13000
H30         H  0.34953157  0.33183957  0.61193571     0.13000
H31         H  0.40053291  0.41653467  0.88705778     0.13000
H32         H  0.40441606  0.33664899  0.88732380     0.13000
H33         H  0.36276269  0.40667476  0.75034242     0.26300
H34         H  0.38718040  0.34167810  0.74872157     0.26300
N35         N  0.12280855  0.37480773  0.69317456    -0.36500
N36         N  0.12569773  0.31058989  0.74943776    -0.57100
N37         N  0.12634066  0.37368544  0.80652523    -0.36500
N38         N  0.12344735  0.43791416  0.75025549    -0.57100
C39         C  0.13089731  0.34167645  0.67177166     0.27100
C40         C  0.12972906  0.40854340  0.67219272     0.27100
C41         C  0.11957403  0.33997005  0.82755079     0.27100
C42         C  0.11858179  0.40681807  0.82799769     0.27100
C43         C  0.12616820  0.28613539  0.71934125     0.35700
C44         C  0.12545473  0.28554300  0.77915101     0.35700
C45         C  0.12374207  0.46298719  0.72055474     0.35700
C46         C  0.12317192  0.46233834  0.78037502     0.35700
C47         C  0.14263752  0.35465345  0.63691150    -0.21800
C48         C  0.14185025  0.39656175  0.63716133    -0.21800
C49         C  0.10783522  0.35195773  0.86269213    -0.21800
C50         C  0.10717773  0.39387381  0.86296504    -0.21800
C51         C  0.12577485  0.24535253  0.73010764    -0.22800
C52         C  0.12615402  0.24499651  0.76782196    -0.22800
C53         C  0.12321953  0.50352503  0.73191192    -0.22800
C54         C  0.12367380  0.50313150  0.76963325    -0.22800
C55         C  0.12860170  0.29984943  0.68233965    -0.18200
C56         C  0.12636069  0.45008292  0.68336317    -0.18200
C57         C  0.12095990  0.44860932  0.81739085    -0.18200
C58         C  0.12290686  0.29845692  0.81633893    -0.18200
H59         H  0.15203811  0.33596011  0.61377471     0.14700
H60         H  0.15053557  0.41595737  0.61426363     0.14700
H61         H  0.09940345  0.33256775  0.88567165     0.14700
H62         H  0.09814371  0.41259526  0.88620363     0.14700
H63         H  0.12544943  0.21833232  0.71288540     0.13000
H64         H  0.12643508  0.21772294  0.78473727     0.13000
H65         H  0.12345309  0.03087571  0.71519590     0.13000
H66         H  0.12467398  0.03010131  0.78707309     0.13000
H67         H  0.11030714  0.37434989  0.71948089     0.26300
H68         H  0.13858398  0.37413160  0.78012629     0.26300
N69         N  0.06123510  0.25241286  0.49959267    -0.36500
N70         N  0.49875856  0.24543955  0.55696731    -0.57100
N71         N  0.43454364  0.24467828  0.50025474    -0.36500
N72         N  0.49708393  0.25185542  0.44288902    -0.57100
C73         C  0.08588600  0.24575208  0.52906681     0.27100
C74         C  0.08480868  0.25022606  0.46892522     0.27100
C75         C  0.41083989  0.24558341  0.53090308     0.27100
C76         C  0.40976468  0.25061287  0.47071591     0.27100
C77         C  0.03229369  0.24159983  0.57857741     0.35700
C78         C  0.46593044  0.23887431  0.57892286     0.35700
C79         C  0.02998037  0.25842641  0.42102387     0.35700
C80         C  0.46355957  0.25649203  0.42137173     0.35700
C81         C  0.12581861  0.24047236  0.51683159    -0.21800
C82         C  0.12500835  0.24266556  0.47908034    -0.21800
C83         C  0.37036089  0.25131648  0.52061029    -0.21800
C84         C  0.36959093  0.25379387  0.48285194    -0.21800
C85         C  0.02057999  0.23203420  0.61432580    -0.22800
C86         C  0.47880455  0.23018750  0.61450320    -0.22800
C87         C  0.01722309  0.26769619  0.38555175    -0.22800
C88         C  0.47543908  0.26645692  0.38574113    -0.22800
C89         C  0.07356709  0.24415981  0.56663401    -0.18200
C90         C  0.07153040  0.25557111  0.43199901    -0.18200
C91         C  0.42219037  0.25383202  0.43321186    -0.18200
C92         C  0.42433590  0.24116385  0.56793453    -0.18200
H93         H  0.15306751  0.23515201  0.53299113     0.14700
H94         H  0.15128960  0.23897033  0.46124289     0.14700
H95         H  0.34384477  0.25379490  0.53832219     0.14700
H96         H  0.34221499  0.25803040  0.46659711     0.14700
H97         H  0.04001067  0.22546075  0.63774074     0.13000
H98         H  0.46019727  0.22241887  0.63816439     0.13000
H99         H  0.03591907  0.27550212  0.36195935     0.13000
H100        H  0.45615989  0.27358256  0.36236454     0.13000
H101        H  0.03085035  0.26130925  0.50044866     0.26300
H102        H  0.46540641  0.23779252  0.49949299     0.26300
C103        C  0.36788992  0.26620024  0.65395056     0.80300
N104        N  0.39530912  0.26747246  0.62586197    -0.78000
C105        C  0.39296914  0.24034706  0.59756951     0.82800
N106        N  0.36262408  0.21191325  0.59726328    -0.77900
C107        C  0.33518614  0.21022045  0.62536002     0.82900
N108        N  0.33786054  0.23739311  0.65365651    -0.79600
C109        C  0.13041906  0.26871038  0.65245789     0.80300
N110        N  0.15906226  0.23854004  0.65301108    -0.78000
C111        C  0.16112475  0.21095903  0.62505272     0.82800
N112        N  0.13422227  0.21332380  0.59659848    -0.77900
C113        C  0.10561525  0.24348547  0.59571539     0.82900
N114        N  0.10400023  0.27115473  0.62364630    -0.79600
N115        N  0.06080180  0.50395496  0.50011020    -0.36500
N116        N  0.49808383  0.49602801  0.44286606    -0.57100
N117        N  0.43420287  0.49564061  0.49971986    -0.36500
N118        N  0.49681587  0.00275334  0.55687259    -0.57100
C119        C  0.08540981  0.49792673  0.47048446     0.27100
C120        C  0.08459540  0.00237607  0.53065043     0.27100
C121        C  0.41033475  0.49688289  0.46917494     0.27100
C122        C  0.40954470  0.00122034  0.52913959     0.27100
C123        C  0.03155482  0.49264068  0.42113774     0.35700
C124        C  0.46512382  0.49036304  0.42086077     0.35700
C125        C  0.02972546  0.00862790  0.57891248     0.35700
C126        C  0.46329923  0.00603491  0.57858715     0.35700
C127        C  0.12558737  0.49410552  0.48247694    -0.21800
C128        C  0.12499212  0.99638489  0.52022443    -0.21800
C129        C  0.36991219  0.50252115  0.47968738    -0.21800
C130        C  0.36937089  0.00491623  0.51711701    -0.21800
C131        C  0.01964472  0.48407484  0.38522277    -0.22800
C132        C  0.47783746  0.48260839  0.38506197    -0.22800
C133        C  0.01692282  0.01629412  0.61470748    -0.22800
C134        C  0.47511460  0.01453231  0.61453084    -0.22800
C135        C  0.07288950  0.49541784  0.43298727    -0.18200
C136        C  0.07129272  0.00644533  0.56776878    -0.18200
C137        C  0.42198664  0.00351825  0.56665360    -0.18200
C138        C  0.42358064  0.49278254  0.43203466    -0.18200
H139        H  0.15286868  0.48964585  0.46614033     0.14700
H140        H  0.15153663  0.99348752  0.53784745     0.14700
H141        H  0.34329231  0.50513807  0.46212242     0.14700
H142        H  0.34205104  0.00915659  0.53345318     0.14700
H143        H  0.03891742  0.47824805  0.36154758     0.13000
H144        H  0.45911556  0.47586270  0.36122395     0.13000
H145        H  0.03555409  0.02324713  0.63855224     0.13000
H146        H  0.45577421  0.02027192  0.63818015     0.13000
H147        H  0.03008845  0.51153430  0.49941212     0.26300
H148        H  0.46502341  0.48858765  0.50037857     0.26300
C149        C  0.10288186  0.00705829  0.59725294     0.80300
N150        N  0.10068856  0.48000481  0.62557257    -0.78000
C151        C  0.12773672  0.48179720  0.65393805     0.82800
N152        N  0.15735449  0.01099170  0.65378298    -0.77900
C153        C  0.16037387  0.03767654  0.62514187     0.82900
N154        N  0.13320520  0.03553686  0.59686120    -0.79600
C155        C  0.38988052  0.00455751  0.59567975     0.80300
N156        N  0.36125770  0.03474604  0.59628172    -0.78000
C157        C  0.33416050  0.03720553  0.62460838     0.82800
N158        N  0.33590324  0.00963580  0.65257373    -0.77900
C159        C  0.36409704  0.47908207  0.65217653     0.82900
N160        N  0.39108868  0.47679786  0.62378655    -0.79600
N161        N  0.31602694  0.25365188  0.99949123    -0.36500
N162        N  0.25327462  0.24594256  0.94223789    -0.57100
N163        N  0.18940906  0.24520977  0.99914683    -0.36500
N164        N  0.25215931  0.25306051  0.05636493    -0.57100
C165        C  0.34057734  0.24738571  0.96986115     0.27100
C166        C  0.33980903  0.25155419  0.03006904     0.27100
C167        C  0.16548875  0.24590966  0.96862146     0.27100
C168        C  0.16477519  0.25101133  0.02879616     0.27100
C169        C  0.28675131  0.24308856  0.92041833     0.35700
C170        C  0.22033192  0.24009068  0.92023789     0.35700
C171        C  0.28514876  0.25843806  0.07839836     0.35700
C172        C  0.21868731  0.25655053  0.07811369     0.35700
C173        C  0.38066576  0.24279199  0.98187456    -0.21800
C174        C  0.38006072  0.24475388  0.01962577    -0.21800
C175        C  0.12503815  0.25138160  0.97913345    -0.21800
C176        C  0.12450887  0.25397318  0.01687151    -0.21800
C177        C  0.27486484  0.23488866  0.88442972    -0.22800
C178        C  0.23308612  0.23285434  0.88435489    -0.22800
C179        C  0.27247710  0.26602379  0.11423302    -0.22800
C180        C  0.23065332  0.26481445  0.11407245    -0.22800
C181        C  0.32809672  0.24537819  0.93233061    -0.18200
C182        C  0.32666826  0.25576304  0.06721377    -0.18200
C183        C  0.17731604  0.25390625  0.06627488    -0.18200
C184        C  0.17875445  0.24182403  0.93148435    -0.18200
H185        H  0.40789331  0.23797516  0.96555103     0.14700
H186        H  0.40652376  0.24121630  0.03725918     0.14700
H187        H  0.09837599  0.25367668  0.96158512     0.14700
H188        H  0.09721362  0.25804707  0.03327953     0.14700
H189        H  0.29414096  0.22942109  0.86068781     0.13000
H190        H  0.21443975  0.22597795  0.86050102     0.13000
H191        H  0.29123037  0.27245946  0.13811923     0.13000
H192        H  0.21142587  0.27053940  0.13779464     0.13000
H193        H  0.28545890  0.26185545  0.99876861     0.26300
H194        H  0.22030396  0.23847823  0.99980897     0.26300
C195        C  0.38589113  0.26937902  0.84689693     0.80300
N196        N  0.35912004  0.27190598  0.87542242    -0.78000
C197        C  0.36017649  0.24415701  0.90326415     0.82800
N198        N  0.38860568  0.21378595  0.90257730    -0.77900
C199        C  0.41563108  0.21115085  0.87420011     0.82900
N200        N  0.41395797  0.23871804  0.84621677    -0.79600
C201        C  0.14709500  0.24105927  0.90205355     0.80300
N202        N  0.11688634  0.21244073  0.90241614    -0.78000
C203        C  0.08942650  0.21056625  0.87433668     0.82800
N204        N  0.09208011  0.23756262  0.84592875    -0.77900
C205        C  0.12174342  0.26673060  0.84571064     0.82900
N206        N  0.14901523  0.26841711  0.87389733    -0.79600
N207        N  0.37639750  0.06083880  0.24977079    -0.36500
N208        N  0.36989948  0.12463905  0.30668413    -0.57100
N209        N  0.37783480  0.18835314  0.25005847    -0.36500
N210        N  0.38054951  0.12454563  0.19276639    -0.57100
C211        C  0.37202866  0.03648267  0.27972587     0.27100
C212        C  0.37863051  0.03653143  0.21957750     0.27100
C213        C  0.37013934  0.21253455  0.27965625     0.27100
C214        C  0.37664685  0.21222814  0.21951827     0.27100
C215        C  0.36550373  0.09123101  0.32848449     0.35700
C216        C  0.36560750  0.15791442  0.32862429     0.35700
C217        C  0.38699947  0.09130580  0.17122932     0.35700
C218        C  0.38699815  0.15783004  0.17132389     0.35700
C219        C  0.37548344  0.49606192  0.26881685    -0.21800
C220        C  0.37893474  0.49598781  0.23107969    -0.21800
C221        C  0.36552046  0.25269340  0.26765998    -0.21800
C222        C  0.36903958  0.25236939  0.22991655    -0.21800
C223        C  0.35731754  0.10350813  0.36434173    -0.22800
C224        C  0.35735740  0.14538735  0.36443834    -0.22800
C225        C  0.39771802  0.10373357  0.13593418    -0.22800
C226        C  0.39769158  0.14563049  0.13599764    -0.22800
C227        C  0.36795173  0.04963100  0.31696755    -0.18200
C228        C  0.38357903  0.04974037  0.18244553    -0.18200
C229        C  0.38272544  0.19921985  0.18252747    -0.18200
C230        C  0.36731126  0.19956081  0.31709235    -0.18200
H231        H  0.37583504  0.46902540  0.28604815     0.14700
H232        H  0.38192041  0.46876428  0.21434455     0.14700
H233        H  0.35985874  0.27980138  0.28394941     0.14700
H234        H  0.36621528  0.27891548  0.21223412     0.14700
H235        H  0.35085646  0.08444575  0.38803481     0.13000
H236        H  0.35066281  0.16422057  0.38821891     0.13000
H237        H  0.40568332  0.08472741  0.11257327     0.13000
H238        H  0.40538804  0.16482728  0.11268397     0.13000
H239        H  0.37833786  0.09224506  0.24997779     0.26300
H240        H  0.38673837  0.15805243  0.25086307     0.26300
N241        N  0.18866301  0.49645472  0.99995418    -0.36500
N242        N  0.25254206  0.49768141  0.05677536    -0.57100
N243        N  0.31549674  0.50503909  0.99937874    -0.36500
N244        N  0.25133510  0.00422358  0.94260221    -0.57100
C245        C  0.16469363  0.49716083  0.03045060     0.27100
C246        C  0.16395046  0.00165144  0.97038039     0.27100
C247        C  0.34010643  0.49907035  0.02901207     0.27100
C248        C  0.33918905  0.00357919  0.96862421     0.27100
C249        C  0.21959872  0.49134068  0.07870927     0.35700
C250        C  0.28609521  0.49349394  0.07834578     0.35700
C251        C  0.21775399  0.00785551  0.92102741     0.35700
C252        C  0.28416131  0.01032415  0.92053970     0.35700
C253        C  0.12420892  0.50215813  0.01986640    -0.21800
C254        C  0.12362885  0.00403189  0.98226829    -0.21800
C255        C  0.38033129  0.49576624  0.01703631    -0.21800
C256        C  0.37959575  0.99748291  0.97899830    -0.21800
C257        C  0.23239857  0.48273960  0.11430923    -0.22800
C258        C  0.27419769  0.48410537  0.11410163    -0.22800
C259        C  0.22944364  0.01694670  0.88516528    -0.22800
C260        C  0.27124759  0.01857193  0.88487974    -0.22800
C261        C  0.17797028  0.49319154  0.06758676    -0.18200
C262        C  0.17648766  0.00450275  0.93291865    -0.18200
C263        C  0.32575383  0.00767375  0.93150201    -0.18200
C264        C  0.32751191  0.49586929  0.06647320    -0.18200
H265        H  0.09749092  0.50428706  0.03736138     0.14700
H266        H  0.09628186  0.00745634  0.96580409     0.14700
H267        H  0.40760142  0.49145068  0.03342883     0.14700
H268        H  0.40609690  0.99452865  0.96132790     0.14700
H269        H  0.21375403  0.47507539  0.13797046     0.13000
H270        H  0.29346910  0.47733239  0.13756770     0.13000
H271        H  0.20999914  0.02293177  0.86163318     0.13000
H272        H  0.28982913  0.02572271  0.86104723     0.13000
H273        H  0.21960399  0.48999614  0.99931687     0.26300
H274        H  0.28466461  0.51202013  0.00010671     0.26300
C275        C  0.11938517  0.47974269  0.84723824     0.80300
N276        N  0.14615729  0.47751407  0.87579635    -0.78000
C277        C  0.14445461  0.00510910  0.90386510     0.82800
N278        N  0.11559134  0.03504542  0.90321500    -0.77900
C279        C  0.08857800  0.03730630  0.87483583     0.82900
N280        N  0.09059021  0.00971097  0.84690945    -0.79600
C281        C  0.35716052  0.00797142  0.90183040     0.80300
N282        N  0.38779514  0.03605670  0.90215570    -0.78000
C283        C  0.41499742  0.03781290  0.87389963     0.82800
N284        N  0.41191209  0.01092976  0.84540652    -0.77900
C285        C  0.38181778  0.48214519  0.84530002     0.80100
N286        N  0.35464004  0.48088591  0.87362128    -0.79600
N287        N  0.12324149  0.12544132  0.30631038    -0.36500
N288        N  0.12418806  0.18856646  0.24928658    -0.57100
N289        N  0.12706825  0.12416859  0.19319357    -0.36500
N290        N  0.12623311  0.06104724  0.25021542    -0.57100
C291        C  0.12992274  0.15917273  0.32736035     0.27100
C292        C  0.13088942  0.09230241  0.32783213     0.27100
C293        C  0.11936952  0.15732560  0.17170207     0.27100
C294        C  0.11996746  0.09045285  0.17222201     0.27100
C295        C  0.12470299  0.21366670  0.27894951     0.35700
C296        C  0.12434679  0.21294585  0.21915448     0.35700
C297        C  0.12597402  0.03668996  0.28035274     0.35700
C298        C  0.12524964  0.03593219  0.22057986     0.35700
C299        C  0.14143534  0.14716334  0.36255462    -0.21800
C300        C  0.14209293  0.10526655  0.36283505    -0.21800
C301        C  0.10770901  0.14438486  0.13681639    -0.21800
C302        C  0.10811581  0.10248716  0.13713421    -0.21800
C303        C  0.12477466  0.25420340  0.26754905    -0.22800
C304        C  0.12536998  0.25374455  0.22982652    -0.22800
C305        C  0.12439157  0.49590355  0.26970975    -0.22800
C306        C  0.12479677  0.99540235  0.23200297    -0.22800
C307        C  0.12687619  0.20073281  0.31613998    -0.18200
C308        C  0.12849912  0.05047469  0.31729288    -0.18200
C309        C  0.12288988  0.04887787  0.18341139    -0.18200
C310        C  0.12194872  0.19915798  0.18219275    -0.18200
H311        H  0.14981215  0.16651843  0.38557211     0.14700
H312        H  0.15101757  0.08657778  0.38612349     0.14700
H313        H  0.09858998  0.16310281  0.11360805     0.14700
H314        H  0.09934828  0.08314105  0.11422852     0.14700
H315        H  0.12492915  0.28152073  0.28440765     0.13000
H316        H  0.12628544  0.28068032  0.21250663     0.13000
H317        H  0.12323099  0.46900779  0.28707201     0.13000
H318        H  0.12411941  0.46805642  0.21516556     0.13000
H319        H  0.11116004  0.12499179  0.27985326     0.26300
H320        H  0.13944141  0.12459246  0.21954686     0.26300
C321        C  0.12154044  0.01722133  0.15396667     0.80300
N322        N  0.14874240  0.01905964  0.12573131    -0.78000
C323        C  0.14635508  0.49217697  0.09712431     0.82800
N324        N  0.11600777  0.46369317  0.09662419    -0.77900
C325        C  0.08876406  0.46145984  0.12487761     0.82900
N326        N  0.09162729  0.48815692  0.15352241    -0.79600
C327        C  0.35948536  0.49409847  0.09567444     0.80300
N328        N  0.38831289  0.46403571  0.09597140    -0.78000
C329        C  0.41505244  0.46096738  0.12459887     0.82800
N330        N  0.41284430  0.48804514  0.15301834    -0.77900
C331        C  0.38450134  0.01825265  0.15284802     0.82900
N332        N  0.35820716  0.02137460  0.12401555    -0.79600
C333        C  0.38359639  0.23086822  0.15314372     0.80300
N334        N  0.35639134  0.22898023  0.12487181    -0.78000
C335        C  0.35842112  0.25619924  0.09659634     0.82800
N336        N  0.38869813  0.28472503  0.09617875    -0.77900
C337        C  0.41581863  0.28700712  0.12449415     0.82900
N338        N  0.41291234  0.26036231  0.15315207    -0.79600
C339        C  0.14526701  0.25499594  0.09540594     0.80300
N340        N  0.11642509  0.28502038  0.09590825    -0.78000
C341        C  0.08950007  0.28766336  0.12438437     0.82800
N342        N  0.09169030  0.26037223  0.15257920    -0.77900
C343        C  0.12036882  0.23023166  0.15226212     0.82900
N344        N  0.14681941  0.22755617  0.12350660    -0.79600
C345        C  0.10491556  0.49445569  0.40388084     0.80300
N346        N  0.13374459  0.46445991  0.40334531    -0.78000
C347        C  0.16075670  0.46193883  0.37496073     0.82800
N348        N  0.15863479  0.48927991  0.34680886    -0.77900
C349        C  0.13008535  0.01936810  0.34715959     0.82900
N350        N  0.10351012  0.02190508  0.37582602    -0.79600
C351        C  0.39192604  0.49212602  0.40259783     0.80300
N352        N  0.39416006  0.01909354  0.37426236    -0.78000
C353        C  0.36655446  0.01783377  0.34631014     0.82800
N354        N  0.33694110  0.48844847  0.34641865    -0.77900
C355        C  0.33442638  0.46141299  0.37482500     0.82900
N356        N  0.36179325  0.46345903  0.40295207    -0.79600
C357        C  0.36581034  0.23123591  0.34662827     0.80300
N358        N  0.39254410  0.22887763  0.37518743    -0.78000
C359        C  0.39020171  0.25532777  0.40398027     0.82800
N360        N  0.36077702  0.28478549  0.40398196    -0.77900
C361        C  0.33389112  0.28756138  0.37545648     0.82900
N362        N  0.33640490  0.26067488  0.34691079    -0.79600
C363        C  0.12789853  0.23239521  0.34558514     0.80300
N364        N  0.15759488  0.26154555  0.34611268    -0.78000
C365        C  0.16042990  0.28802489  0.37492323     0.82800
N366        N  0.13337296  0.28535376  0.40327946    -0.77900
C367        C  0.10306204  0.25684452  0.40252714     0.82900
N368        N  0.10072407  0.23028876  0.37380980    -0.79600
O369        O  0.04282113  0.41582047  0.15470780    -0.71700
O370        O  0.46159865  0.33249511  0.15447877    -0.71900
O371        O  0.04341368  0.33299488  0.15449370    -0.71800
O372        O  0.46094190  0.41527922  0.15457567    -0.71800
O373        O  0.46046130  0.41481338  0.09465017    -0.71700
O374        O  0.04405407  0.33376782  0.09456785    -0.71700
O375        O  0.46134705  0.33289583  0.09454101    -0.71700
O376        O  0.04320303  0.41566191  0.09477531    -0.71900
V377        V  0.50218843  0.37414735  0.15340755     1.35200
V378        V  0.50225846  0.37427623  0.09581802     1.35200
C379        C  0.05691718  0.42977835  0.12478508     0.77600
C380        C  0.44758507  0.31867434  0.12448896     0.77600
C381        C  0.05778462  0.31948159  0.12449417     0.77500
C382        C  0.44666875  0.42898650  0.12460744     0.77400
O383        O  0.20616276  0.41605191  0.40492179    -0.71700
O384        O  0.28846024  0.33378084  0.40525364    -0.71900
O385        O  0.28884582  0.41570774  0.40497622    -0.71800
O386        O  0.20573419  0.33414762  0.40505808    -0.71800
O387        O  0.20658088  0.33336160  0.34513310    -0.71700
O388        O  0.28821243  0.41620304  0.34504153    -0.71700
O389        O  0.28838381  0.33342239  0.34532177    -0.71700
O390        O  0.20643045  0.41614702  0.34498314    -0.71900
V391        V  0.24730133  0.37492928  0.40388508     1.35200
V392        V  0.24740050  0.37478593  0.34629238     1.35200
C393        C  0.19236209  0.43008513  0.37493067     0.77600
C394        C  0.30233374  0.31955912  0.37534953     0.77600
C395        C  0.30252108  0.42987622  0.37496738     0.77500
C396        C  0.19219734  0.31977532  0.37507387     0.77400
O397        O  0.20548579  0.08402404  0.59507918    -0.71700
O398        O  0.28985526  0.16426861  0.59523307    -0.71900
O399        O  0.28817711  0.08254120  0.59486550    -0.71800
O400        O  0.20718733  0.16582981  0.59520678    -0.71800
O401        O  0.20614878  0.16470063  0.65514088    -0.71700
O402        O  0.28927229  0.08333351  0.65480658    -0.71700
O403        O  0.28797413  0.16597586  0.65512785    -0.71700
O404        O  0.20749379  0.08198460  0.65495804    -0.71900
V405        V  0.24766788  0.12416968  0.59625615     1.35200
V406        V  0.24771809  0.12399995  0.65384766     1.35200
C407        C  0.19244556  0.06910858  0.62503317     0.77600
C408        C  0.30300070  0.17895554  0.62523213     0.77600
C409        C  0.30267523  0.06903133  0.62476306     0.77500
C410        C  0.19273012  0.17920318  0.62517802     0.77400
O411        O  0.46018951  0.08381761  0.90399649    -0.71700
O412        O  0.04393546  0.16461153  0.90434048    -0.71900
O413        O  0.46124417  0.16560368  0.90415307    -0.71800
O414        O  0.04275891  0.08284794  0.90442557    -0.71800
O415        O  0.04362534  0.08332808  0.84447879    -0.71700
O416        O  0.46087003  0.16508615  0.84420592    -0.71700
O417        O  0.04266925  0.16602137  0.84442541    -0.71700
O418        O  0.46188916  0.08236160  0.84408814    -0.71900
V419        V  0.50202954  0.12422700  0.90305703     1.35200
V420        V  0.50226072  0.12421321  0.84545699     1.35200
C421        C  0.44706652  0.06915967  0.87398148     0.77600
C422        C  0.05736242  0.17917362  0.87439619     0.77600
C423        C  0.44710981  0.17927230  0.87417004     0.77500
C424        C  0.05709582  0.06913674  0.87454362     0.77400
N425        N  0.36985047  0.93767664  0.74920414    -0.36500
N426        N  0.36938152  0.87333966  0.69257598    -0.57100
N427        N  0.37999202  0.81099790  0.74964843    -0.36500
N428        N  0.38012593  0.87531078  0.80628650    -0.57100
C429        C  0.37011898  0.96137116  0.71853128     0.27100
C430        C  0.37637721  0.96253888  0.77859195     0.27100
C431        C  0.37306333  0.78616140  0.72032629     0.27100
C432        C  0.37962295  0.78731320  0.78032676     0.27100
C433        C  0.36257911  0.90615194  0.67064652     0.35700
C434        C  0.36566372  0.83973005  0.67100802     0.35700
C435        C  0.38386297  0.90892631  0.82786164     0.35700
C436        C  0.38725813  0.84251118  0.82815729     0.35700
C437        C  0.37602959  0.00192661  0.72870375    -0.21800
C438        C  0.37931801  0.00273720  0.76640553    -0.21800
C439        C  0.36983319  0.74599433  0.73255275    -0.21800
C440        C  0.37330920  0.74680822  0.77022050    -0.21800
C441        C  0.35378377  0.89319763  0.63510009    -0.22800
C442        C  0.35581972  0.85136816  0.63530101    -0.22800
C443        C  0.39398483  0.89728839  0.86350042    -0.22800
C444        C  0.39622086  0.85547534  0.86365611    -0.22800
C445        C  0.36509988  0.94778686  0.68158075    -0.18200
C446        C  0.38018224  0.95020925  0.81603861    -0.18200
C447        C  0.38483621  0.80086557  0.81724282    -0.18200
C448        C  0.36919174  0.79846839  0.68290236    -0.18200
H449        H  0.37811517  0.52834832  0.71120126     0.14700
H450        H  0.38399651  0.52995075  0.78285638     0.14700
H451        H  0.36484356  0.71862492  0.71641165     0.14700
H452        H  0.37099100  0.72031184  0.78800300     0.14700
H453        H  0.34602971  0.91178541  0.61141285     0.13000
H454        H  0.34954553  0.83185701  0.61185979     0.13000
H455        H  0.40036696  0.91679722  0.88691745     0.13000
H456        H  0.40423825  0.83690115  0.88727953     0.13000
H457        H  0.36285470  0.90680645  0.75016243     0.26300
H458        H  0.38737896  0.84178803  0.74863126     0.26300
N459        N  0.12284616  0.87486860  0.69324315    -0.36500
N460        N  0.12582921  0.81061126  0.74945658    -0.57100
N461        N  0.12640681  0.87366863  0.80659276    -0.36500
N462        N  0.12354281  0.93793656  0.75034951    -0.57100
C463        C  0.13089661  0.84175812  0.67179754     0.27100
C464        C  0.12964113  0.90862809  0.67225553     0.27100
C465        C  0.11954313  0.83994179  0.82757381     0.27100
C466        C  0.11856761  0.90678301  0.82806072     0.27100
C467        C  0.12643863  0.78616934  0.71935178     0.35700
C468        C  0.12566195  0.78555601  0.77916488     0.35700
C469        C  0.12387533  0.96304169  0.72067024     0.35700
C470        C  0.12338893  0.96232943  0.78048963     0.35700
C471        C  0.14249582  0.85477516  0.63691277    -0.21800
C472        C  0.14165291  0.89667858  0.63718507    -0.21800
C473        C  0.10767153  0.85190044  0.86268773    -0.21800
C474        C  0.10702352  0.89381679  0.86298541    -0.21800
C475        C  0.12624659  0.74538103  0.73011563    -0.22800
C476        C  0.12657320  0.74501761  0.76783250    -0.22800
C477        C  0.12353466  0.00356927  0.73206866    -0.22800
C478        C  0.12405528  0.00313087  0.76978820    -0.22800
C479        C  0.12871803  0.79991415  0.68234386    -0.18200
C480        C  0.12630712  0.95016433  0.68345730    -0.18200
C481        C  0.12102138  0.94857603  0.81748578    -0.18200
C482        C  0.12294515  0.79844443  0.81634771    -0.18200
H483        H  0.15185591  0.83611423  0.61374211     0.14700
H484        H  0.15025607  0.91609052  0.61427425     0.14700
H485        H  0.09915910  0.83249026  0.88562992     0.14700
H486        H  0.09791278  0.91252444  0.88620898     0.14700
H487        H  0.12605177  0.71835886  0.71289660     0.13000
H488        H  0.12693883  0.71774717  0.78475295     0.13000
H489        H  0.12308753  0.53080742  0.71500583     0.13000
H490        H  0.12418230  0.53012695  0.78688785     0.13000
H491        H  0.11045882  0.87438179  0.71959125     0.26300
H492        H  0.13876758  0.87413302  0.78023634     0.26300
N493        N  0.06106646  0.75251954  0.49957952    -0.36500
N494        N  0.49866775  0.74543943  0.55700048    -0.57100
N495        N  0.43439913  0.74442852  0.50033852    -0.36500
N496        N  0.49690460  0.75173940  0.44293223    -0.57100
C497        C  0.08573942  0.74580550  0.52903739     0.27100
C498        C  0.08460557  0.75025831  0.46888562     0.27100
C499        C  0.41070905  0.74529832  0.53098854     0.27100
C500        C  0.40958293  0.75023653  0.47081382     0.27100
C501        C  0.03221638  0.74175200  0.57861338     0.35700
C502        C  0.46586236  0.73887507  0.57898451     0.35700
C503        C  0.02974131  0.75832234  0.42101525     0.35700
C504        C  0.46333955  0.75622170  0.42143761     0.35700
C505        C  0.12563812  0.74040662  0.51675755    -0.21800
C506        C  0.12479006  0.74258973  0.47900766    -0.21800
C507        C  0.37019713  0.75086438  0.52070743    -0.21800
C508        C  0.36939964  0.75328101  0.48295076    -0.21800
C509        C  0.02053736  0.73229289  0.61439453    -0.22800
C510        C  0.47876752  0.73034133  0.61458489    -0.22800
C511        C  0.01691258  0.76742486  0.38553098    -0.22800
C512        C  0.47515913  0.76609390  0.38576721    -0.22800
C513        C  0.07348059  0.74428694  0.56663152    -0.18200
C514        C  0.07131619  0.75560190  0.43195731    -0.18200
C515        C  0.42198332  0.75348061  0.43332007    -0.18200
C516        C  0.42425778  0.74103405  0.56801121    -0.18200
H517        H  0.15289542  0.73501389  0.53288324     0.14700
H518        H  0.15103677  0.73879997  0.46114529     0.14700
H519        H  0.34367745  0.75329554  0.53841951     0.14700
H520        H  0.34200684  0.75740817  0.46669276     0.14700
H521        H  0.03998509  0.72583751  0.63782325     0.13000
H522        H  0.46018859  0.72259669  0.63827075     0.13000
H523        H  0.03555354  0.77518305  0.36189148     0.13000
H524        H  0.45584499  0.77309338  0.36238370     0.13000
H525        H  0.03070795  0.76152103  0.50046418     0.26300
H526        H  0.46529483  0.73769336  0.49956880     0.26300
C527        C  0.36781887  0.76629024  0.65395009     0.80300
N528        N  0.39525992  0.76747138  0.62588171    -0.78000
C529        C  0.39292577  0.74027143  0.59765506     0.82800
N530        N  0.36257694  0.71185523  0.59739354    -0.77900
C531        C  0.33509667  0.71028017  0.62545129     0.82900
N532        N  0.33774151  0.73753449  0.65368249    -0.79600
C533        C  0.13048649  0.76880147  0.65242144     0.80300
N534        N  0.15914739  0.73864975  0.65290298    -0.78000
C535        C  0.16115339  0.71106241  0.62494659     0.82800
N536        N  0.13419650  0.71343423  0.59652954    -0.77900
C537        C  0.10558170  0.74359977  0.59569066     0.82900
N538        N  0.10400806  0.77125087  0.62364694    -0.79600
N539        N  0.06079687  0.00379086  0.50006601    -0.36500
N540        N  0.49818692  0.99583243  0.44276502    -0.57100
N541        N  0.43421922  0.99538200  0.49953922    -0.36500
N542        N  0.49687898  0.50292028  0.55701002    -0.57100
C543        C  0.08546031  0.99789523  0.47045573     0.27100
C544        C  0.08462268  0.50245605  0.53067501     0.27100
C545        C  0.41042775  0.99674711  0.46896073     0.27100
C546        C  0.40955720  0.50117857  0.52939193     0.27100
C547        C  0.03168643  0.99252469  0.42105518     0.35700
C548        C  0.46527152  0.99005141  0.42074018     0.35700
C549        C  0.02982706  0.50889361  0.57898715     0.35700
C550        C  0.46339613  0.50622413  0.57876535     0.35700
C551        C  0.12563869  0.99423528  0.48247454    -0.21800
C552        C  0.12498619  0.49629098  0.52022587    -0.21800
C553        C  0.37002704  0.00276980  0.47936869    -0.21800
C554        C  0.36932821  0.50454800  0.51745000    -0.21800
C555        C  0.01983486  0.98396210  0.38512318    -0.22800
C556        C  0.47803163  0.98234007  0.38494606    -0.22800
C557        C  0.01708710  0.51665380  0.61478551    -0.22800
C558        C  0.47526485  0.51483475  0.61467420    -0.22800
C559        C  0.07299639  0.99535963  0.43294770    -0.18200
C560        C  0.07136919  0.50660322  0.56779650    -0.18200
C561        C  0.42206650  0.50355838  0.56689809    -0.18200
C562        C  0.42372640  0.99243385  0.43187727    -0.18200
H563        H  0.15294999  0.98990887  0.46614798     0.14700
H564        H  0.15153329  0.49330163  0.53783508     0.14700
H565        H  0.34347694  0.00558037  0.46174007     0.14700
H566        H  0.34201715  0.50849561  0.53386037     0.14700
H567        H  0.03914031  0.97822292  0.36145271     0.13000
H568        H  0.45935065  0.97554682  0.36109285     0.13000
H569        H  0.03577183  0.52365434  0.63858705     0.13000
H570        H  0.45595006  0.52056736  0.63834284     0.13000
H571        H  0.03004545  0.01120369  0.49934503     0.26300
H572        H  0.46496249  0.98796535  0.50026748     0.26300
C573        C  0.10298488  0.50711131  0.59723830     0.80300
N574        N  0.10057677  0.98001825  0.62564230    -0.78000
C575        C  0.12759078  0.98189759  0.65403414     0.82800
N576        N  0.15751617  0.51087690  0.65372535    -0.77900
C577        C  0.16051614  0.53762178  0.62512729     0.82900
N578        N  0.13332803  0.53555848  0.59686430    -0.79600
C579        C  0.38999250  0.50460578  0.59597016     0.80300
N580        N  0.36135242  0.53478092  0.59655470    -0.78000
C581        C  0.33421436  0.53723162  0.62485243     0.82800
N582        N  0.33588923  0.50960802  0.65278387    -0.77900
C583        C  0.36411032  0.97912029  0.65195456     0.82900
N584        N  0.39100877  0.97677320  0.62350669    -0.79600
N585        N  0.31587315  0.75369389  0.99945988    -0.36500
N586        N  0.25317529  0.74576038  0.94221471    -0.57100
N587        N  0.18926254  0.74513354  0.99910969    -0.36500
N588        N  0.25199382  0.75324318  0.05631730    -0.57100
C589        C  0.34043993  0.74736187  0.96984142     0.27100
C590        C  0.33963525  0.75165727  0.03006337     0.27100
C591        C  0.16535499  0.74577617  0.96858141     0.27100
C592        C  0.16461602  0.75096435  0.02874074     0.27100
C593        C  0.28665090  0.74300017  0.92038019     0.35700
C594        C  0.22023145  0.73992353  0.92021485     0.35700
C595        C  0.28495965  0.75876068  0.07835034     0.35700
C596        C  0.21850878  0.75679533  0.07803627     0.35700
C597        C  0.38051142  0.74276146  0.98188700    -0.21800
C598        C  0.37988482  0.74480856  0.01964201    -0.21800
C599        C  0.12489201  0.75124119  0.97907523    -0.21800
C600        C  0.12434840  0.75388815  0.01681034    -0.21800
C601        C  0.27476586  0.73484816  0.88438396    -0.22800
C602        C  0.23298721  0.73275443  0.88431904    -0.22800
C603        C  0.27225802  0.76652586  0.11414427    -0.22800
C604        C  0.23043390  0.76527269  0.11396506    -0.22800
C605        C  0.32799569  0.74534873  0.93228970    -0.18200
C606        C  0.32648483  0.75599885  0.06720944    -0.18200
C607        C  0.17715810  0.75395292  0.06620512    -0.18200
C608        C  0.17865143  0.74167838  0.93145754    -0.18200
H609        H  0.40773987  0.73789350  0.96557622     0.14700
H610        H  0.40633654  0.74130916  0.03729426     0.14700
H611        H  0.09823445  0.75351016  0.96151795     0.14700
H612        H  0.09705300  0.75800097  0.03321272     0.14700
H613        H  0.29404525  0.72947557  0.86062663     0.13000
H614        H  0.21434064  0.72591896  0.86045544     0.13000
H615        H  0.29099885  0.77307318  0.13801395     0.13000
H616        H  0.21117174  0.77107261  0.13765140     0.13000
H617        H  0.28531427  0.76193468  0.99870730     0.26300
H618        H  0.22016512  0.73843696  0.99978877     0.26300
C619        C  0.38586592  0.76951334  0.84687907     0.80300
N620        N  0.35907951  0.77199671  0.87540787    -0.78000
C621        C  0.36010109  0.74418228  0.90321157     0.82800
N622        N  0.38851370  0.71378976  0.90247559    -0.77900
C623        C  0.41553473  0.71116418  0.87408648     0.82900
N624        N  0.41388498  0.73879554  0.84614339    -0.79600
C625        C  0.14701587  0.74096905  0.90202525     0.80300
N626        N  0.11680778  0.71236093  0.90234592    -0.78000
C627        C  0.08936809  0.71053223  0.87425540     0.82800
N628        N  0.09205547  0.73754037  0.84585972    -0.77900
C629        C  0.12172045  0.76670639  0.84569593     0.82900
N630        N  0.14895364  0.76837029  0.87390949    -0.79600
N631        N  0.37305696  0.56094640  0.24952371    -0.36500
N632        N  0.37011113  0.62450938  0.30673528    -0.57100
N633        N  0.37818278  0.68818130  0.25002116    -0.36500
N634        N  0.38054941  0.62458625  0.19275146    -0.57100
C635        C  0.37175867  0.53661399  0.27976537     0.27100
C636        C  0.37827349  0.53658077  0.21963482     0.27100
C637        C  0.37126139  0.71244889  0.27972532     0.27100
C638        C  0.37768686  0.71228093  0.21958439     0.27100
C639        C  0.36458856  0.59118877  0.32840438     0.35700
C640        C  0.36537454  0.65779368  0.32856228     0.35700
C641        C  0.38589949  0.59129594  0.17105232     0.35700
C642        C  0.38658284  0.65785010  0.17117030     0.35700
C643        C  0.37210865  0.99587438  0.26835130    -0.21800
C644        C  0.37561121  0.99593525  0.23059340    -0.21800
C645        C  0.36795214  0.75280875  0.26794450    -0.21800
C646        C  0.37139574  0.75259866  0.23020436    -0.21800
C647        C  0.35568518  0.60347245  0.36410052    -0.22800
C648        C  0.35612243  0.64534456  0.36420865    -0.22800
C649        C  0.39591325  0.60368973  0.13556159    -0.22800
C650        C  0.39628963  0.64558088  0.13564163    -0.22800
C651        C  0.36730683  0.54966330  0.31696658    -0.18200
C652        C  0.38277870  0.54972086  0.18241620    -0.18200
C653        C  0.38292284  0.69928550  0.18246471    -0.18200
C654        C  0.36765225  0.69940237  0.31707422    -0.18200
H655        H  0.36972284  0.96867053  0.28520812     0.14700
H656        H  0.37589639  0.96883524  0.21345726     0.14700
H657        H  0.36313269  0.77995807  0.28441148     0.14700
H658        H  0.36929689  0.77934161  0.21268714     0.14700
H659        H  0.34856004  0.58439988  0.38763695     0.13000
H660        H  0.34904611  0.66425476  0.38785179     0.13000
H661        H  0.40324865  0.58469258  0.11203350     0.13000
H662        H  0.40363572  0.66470424  0.11218915     0.13000
H663        H  0.36870813  0.59220149  0.24916059     0.26300
H664        H  0.38563508  0.65746028  0.25068003     0.26300
N665        N  0.18865493  0.99659639  0.00005781    -0.36500
N666        N  0.25269680  0.99778707  0.05678999    -0.57100
N667        N  0.31548318  0.00503848  0.99928616    -0.36500
N668        N  0.25147190  0.50436177  0.94262393    -0.57100
C669        C  0.16473390  0.99712863  0.03057741     0.27100
C670        C  0.16403815  0.50173593  0.97025091     0.27100
C671        C  0.34015585  0.99897130  0.02887574     0.27100
C672        C  0.33931424  0.50386107  0.96878506     0.27100
C673        C  0.21977763  0.99153730  0.07878201     0.35700
C674        C  0.28629117  0.99383568  0.07835635     0.35700
C675        C  0.21794092  0.50780722  0.92096002     0.35700
C676        C  0.28435432  0.51032460  0.92059414     0.35700
C677        C  0.12419256  0.00184617  0.02003180    -0.21800
C678        C  0.12371690  0.50437871  0.98210539    -0.21800
C679        C  0.38029996  0.99524944  0.01677965    -0.21800
C680        C  0.37974408  0.49811069  0.97926179    -0.21800
C681        C  0.23264863  0.98318091  0.11441244    -0.22800
C682        C  0.27445104  0.98465405  0.11416755    -0.22800
C683        C  0.22972023  0.51668443  0.88507792    -0.22800
C684        C  0.27152087  0.51834744  0.88487011    -0.22800
C685        C  0.17811125  0.99324483  0.06769483    -0.18200
C686        C  0.17664141  0.50453753  0.93279459    -0.18200
C687        C  0.32593020  0.50775648  0.93163511    -0.18200
C688        C  0.32769375  0.99613466  0.06641195    -0.18200
H689        H  0.09747801  0.00381012  0.03754501     0.14700
H690        H  0.09640670  0.50800014  0.96563116     0.14700
H691        H  0.40759562  0.99076393  0.03309809     0.14700
H692        H  0.40633630  0.49541178  0.96167156     0.14700
H693        H  0.21405389  0.97562180  0.13813196     0.13000
H694        H  0.29376342  0.97807141  0.13764995     0.13000
H695        H  0.21034179  0.52250687  0.86147066     0.13000
H696        H  0.29015031  0.52537104  0.86103730     0.13000
H697        H  0.21965472  0.99046929  0.99940312     0.26300
H698        H  0.28473909  0.01242896  0.00007680     0.26300
C699        C  0.11935525  0.97968617  0.84733938     0.80300
N700        N  0.14602934  0.97741376  0.87596291    -0.78000
C701        C  0.14463789  0.50522184  0.90369757     0.82800
N702        N  0.11574890  0.53514240  0.90309363    -0.77900
C703        C  0.08862256  0.53734060  0.87479549     0.82900
N704        N  0.09057200  0.50972011  0.84688679    -0.79600
C705        C  0.35737499  0.50789892  0.90200718     0.80300
N706        N  0.38793496  0.53605260  0.90220586    -0.78000
C707        C  0.41509870  0.53774924  0.87392557     0.82800
N708        N  0.41203006  0.51077161  0.84550655    -0.77900
C709        C  0.38165127  0.98235475  0.84508738     0.80100
N710        N  0.35440021  0.98108025  0.87335184    -0.79600
N711        N  0.12316680  0.62546222  0.30628970    -0.36500
N712        N  0.12414647  0.68854891  0.24924705    -0.57100
N713        N  0.12700703  0.62413003  0.19313895    -0.36500
N714        N  0.12611505  0.56104419  0.25018102    -0.57100
C715        C  0.12983742  0.65919480  0.32733862     0.27100
C716        C  0.13077652  0.59232667  0.32782077     0.27100
C717        C  0.11938417  0.65728951  0.17163072     0.27100
C718        C  0.11995172  0.59041189  0.17215705     0.27100
C719        C  0.12465193  0.71366100  0.27890649     0.35700
C720        C  0.12431706  0.71291605  0.21910495     0.35700
C721        C  0.12587246  0.53670316  0.28033256     0.35700
C722        C  0.12515430  0.53591488  0.22054817     0.35700
C723        C  0.14131948  0.64719370  0.36254309    -0.21800
C724        C  0.14195722  0.60529484  0.36283151    -0.21800
C725        C  0.10782762  0.64434547  0.13671528    -0.21800
C726        C  0.10821061  0.60244762  0.13703883    -0.21800
C727        C  0.12474544  0.75419101  0.26749398    -0.22800
C728        C  0.12535299  0.75371775  0.22977149    -0.22800
C729        C  0.12445461  0.99589567  0.26972223    -0.22800
C730        C  0.12472905  0.49539293  0.23198799    -0.22800
C731        C  0.12678302  0.70074652  0.31610791    -0.18200
C732        C  0.12836513  0.55050070  0.31727983    -0.18200
C733        C  0.12282712  0.54883708  0.18336382    -0.18200
C734        C  0.12192819  0.69912424  0.18213739    -0.18200
H735        H  0.14967410  0.66655519  0.38556344     0.14700
H736        H  0.15084647  0.58660799  0.38613226     0.14700
H737        H  0.09878245  0.66305670  0.11347970     0.14700
H738        H  0.09949734  0.58310747  0.11411242     0.14700
H739        H  0.12490934  0.78151295  0.28434672     0.13000
H740        H  0.12629402  0.78064981  0.21244868     0.13000
H741        H  0.12326884  0.96899565  0.28707834     0.13000
H742        H  0.12416201  0.96807168  0.21517404     0.13000
H743        H  0.11110155  0.62500685  0.27982756     0.26300
H744        H  0.13929248  0.62455671  0.21952325     0.26300
C745        C  0.12147664  0.51716507  0.15391751     0.80300
N746        N  0.14865265  0.51900796  0.12565667    -0.78000
C747        C  0.14653225  0.99215669  0.09725448     0.82800
N748        N  0.11622190  0.96362976  0.09676510    -0.77900
C749        C  0.08891397  0.96143884  0.12497036     0.82900
N750        N  0.09171120  0.98819058  0.15357741    -0.79600
C751        C  0.35977853  0.99439994  0.09557001     0.80300
N752        N  0.38842833  0.96416223  0.09591037    -0.78000
C753        C  0.41504749  0.96087227  0.12460957     0.82800
N754        N  0.41280734  0.98777611  0.15314035    -0.77900
C755        C  0.38412486  0.51816309  0.15287716     0.82900
N756        N  0.35769307  0.52097169  0.12415292    -0.79600
C757        C  0.38363872  0.73100794  0.15308023     0.80300
N758        N  0.35621883  0.72928908  0.12494558    -0.78000
C759        C  0.35822288  0.75649197  0.09663423     0.82800
N760        N  0.38855670  0.78496162  0.09613868    -0.77900
C761        C  0.41581768  0.78713658  0.12435401     0.82900
N762        N  0.41304457  0.76040564  0.15295120    -0.79600
C763        C  0.14513181  0.75497580  0.09533132     0.80300
N764        N  0.11632394  0.78501471  0.09587983    -0.78000
C765        C  0.08946060  0.78767107  0.12438945     0.82800
N766        N  0.09166063  0.76036670  0.15257328    -0.77900
C767        C  0.12032120  0.73020810  0.15221411     0.82900
N768        N  0.14673666  0.72753884  0.12343117    -0.79600
C769        C  0.10506223  0.99442339  0.40388008     0.80300
N770        N  0.13389471  0.96442830  0.40335409    -0.78000
C771        C  0.16089818  0.96189114  0.37496164     0.82800
N772        N  0.15877488  0.98923110  0.34680508    -0.77900
C773        C  0.12993187  0.51940010  0.34715273     0.82900
N774        N  0.10335515  0.52193715  0.37582256    -0.79600
C775        C  0.39213355  0.99179359  0.40243730     0.80300
N776        N  0.39382854  0.51944657  0.37439998    -0.78000
C777        C  0.36635835  0.51786935  0.34632255     0.82800
N778        N  0.33680317  0.98872037  0.34652621    -0.77900
C779        C  0.33436830  0.96147018  0.37479080     0.82900
N780        N  0.36186388  0.96328275  0.40282336    -0.79600
C781        C  0.36594181  0.73100136  0.34662075     0.80300
N782        N  0.39240283  0.72845519  0.37535182    -0.78000
C783        C  0.38996923  0.75488465  0.40413194     0.82800
N784        N  0.36057710  0.78437440  0.40405069    -0.77900
C785        C  0.33388806  0.78729199  0.37538325     0.82900
N786        N  0.33660155  0.76052301  0.34675104    -0.79600
C787        C  0.12776833  0.73241997  0.34554880     0.80300
N788        N  0.15750905  0.76151877  0.34611813    -0.78000
C789        C  0.16035150  0.78799311  0.37492860     0.82800
N790        N  0.13323013  0.78537648  0.40325248    -0.77900
C791        C  0.10285563  0.75691843  0.40245903     0.82900
N792        N  0.10054246  0.73035390  0.37374081    -0.79600
O793        O  0.04285058  0.91584996  0.15473804    -0.71700
O794        O  0.46163285  0.83253226  0.15436537    -0.71900
O795        O  0.04343239  0.83302973  0.15449544    -0.71800
O796        O  0.46096089  0.91525109  0.15452204    -0.71800
O797        O  0.46058373  0.91491083  0.09459242    -0.71700
O798        O  0.04408844  0.83379130  0.09456703    -0.71700
O799        O  0.46137960  0.83302830  0.09442717    -0.71700
O800        O  0.04335362  0.91567907  0.09480679    -0.71900
V801        V  0.50221889  0.87417587  0.15336943     1.35200
V802        V  0.50234818  0.87435120  0.09577813     1.35200
C803        C  0.05702715  0.92978687  0.12483646     0.77600
C804        C  0.44759965  0.81878130  0.12435706     0.77600
C805        C  0.05778642  0.81949925  0.12450203     0.77500
C806        C  0.44669955  0.92896479  0.12455816     0.77400
O807        O  0.20627689  0.91594170  0.40489228    -0.71700
O808        O  0.28852116  0.83360529  0.40515606    -0.71900
O809        O  0.28892953  0.91558070  0.40487766    -0.71800
O810        O  0.20578945  0.83403561  0.40504371    -0.71800
O811        O  0.20658790  0.83325101  0.34512010    -0.71700
O812        O  0.28826977  0.91610263  0.34494569    -0.71700
O813        O  0.28841424  0.83323987  0.34522716    -0.71700
O814        O  0.20650225  0.91604316  0.34495447    -0.71900
V815        V  0.24738951  0.87479384  0.40382245     1.35200
V816        V  0.24744855  0.87465420  0.34623224     1.35200
C817        C  0.19247065  0.92999662  0.37491116     0.77600
C818        C  0.30235604  0.81934378  0.37524948     0.77600
C819        C  0.30253481  0.92983178  0.37487279     0.77500
C820        C  0.19219247  0.81969111  0.37507172     0.77400
O821        O  0.20562309  0.58396738  0.59511260    -0.71700
O822        O  0.28983006  0.66432617  0.59533022    -0.71900
O823        O  0.28829914  0.58259551  0.59503433    -0.71800
O824        O  0.20717681  0.66579146  0.59516453    -0.71800
O825        O  0.20609621  0.66477297  0.65509841    -0.71700
O826        O  0.28923078  0.58338270  0.65497587    -0.71700
O827        O  0.28790221  0.66604637  0.65522585    -0.71700
O828        O  0.20746175  0.58204254  0.65500091    -0.71900
V829        V  0.24772158  0.62417431  0.59632166     1.35200
V830        V  0.24766810  0.62406224  0.65391448     1.35200
C831        C  0.19253180  0.56908647  0.62505919     0.77600
C832        C  0.30292871  0.67902977  0.62533500     0.77600
C833        C  0.30271799  0.56907413  0.62496155     0.77500
C834        C  0.19270739  0.67923709  0.62510693     0.77400
O835        O  0.46022751  0.58380651  0.90394509    -0.71700
O836        O  0.04385270  0.66465705  0.90426225    -0.71900
O837        O  0.46116581  0.66559493  0.90404173    -0.71800
O838        O  0.04278271  0.58289911  0.90439925    -0.71800
O839        O  0.04360887  0.58331372  0.84445274    -0.71700
O840        O  0.46082610  0.66507132  0.84409737    -0.71700
O841        O  0.04262879  0.66599614  0.84434314    -0.71700
O842        O  0.46189288  0.58232081  0.84403444    -0.71900
V843        V  0.50200389  0.62424633  0.90298383     1.35200
V844        V  0.50223945  0.62418912  0.84538352     1.35200
C845        C  0.44711568  0.56911829  0.87394344     0.77600
C846        C  0.05729623  0.67917595  0.87431106     0.77600
C847        C  0.44703796  0.67926723  0.87405303     0.77500
C848        C  0.05711500  0.56916285  0.87452158     0.77400
N849        N  0.86973276  0.43753878  0.74942950    -0.36500
N850        N  0.86920095  0.37323758  0.69273196    -0.57100
N851        N  0.87994018  0.31085694  0.74970779    -0.36500
N852        N  0.88008847  0.37514274  0.80643232    -0.57100
C853        C  0.86999203  0.46126031  0.71877303     0.27100
C854        C  0.87631551  0.46237239  0.77883013     0.27100
C855        C  0.87314040  0.28602392  0.72035851     0.27100
C856        C  0.87971066  0.28714067  0.78036054     0.27100
C857        C  0.86244151  0.40608663  0.67083311     0.35700
C858        C  0.86555049  0.33965165  0.67111743     0.35700
C859        C  0.88386979  0.40872099  0.82804391     0.35700
C860        C  0.88726897  0.34231836  0.82824863     0.35700
C861        C  0.87591907  0.50180341  0.72897476    -0.21800
C862        C  0.87924588  0.50258013  0.76667117    -0.21800
C863        C  0.87013801  0.24582316  0.73254175    -0.21800
C864        C  0.87361883  0.24660981  0.77021367    -0.21800
C865        C  0.85371517  0.39317789  0.63526094    -0.22800
C866        C  0.85575612  0.35134256  0.63541510    -0.22800
C867        C  0.89405646  0.39703762  0.86365499    -0.22800
C868        C  0.89629802  0.35523017  0.86375403    -0.22800
C869        C  0.86499599  0.44771497  0.68180521    -0.18200
C870        C  0.88021431  0.45001085  0.81625993    -0.18200
C871        C  0.88487119  0.30069315  0.81728238    -0.18200
C872        C  0.86919424  0.29836947  0.68294867    -0.18200
H873        H  0.87811028  0.02847070  0.71096682     0.14700
H874        H  0.88394399  0.03011361  0.78263625     0.14700
H875        H  0.86530418  0.21845097  0.71636367     0.14700
H876        H  0.87146645  0.22007505  0.78796647     0.14700
H877        H  0.84604070  0.41180526  0.61157803     0.13000
H878        H  0.84956772  0.33186454  0.61193354     0.13000
H879        H  0.90049921  0.41651133  0.88708233     0.13000
H880        H  0.90438933  0.33662692  0.88733914     0.13000
H881        H  0.86272884  0.40667042  0.75036285     0.26300
H882        H  0.88713186  0.34168990  0.74873629     0.26300
N883        N  0.62280042  0.37481006  0.69317260    -0.36500
N884        N  0.62569696  0.31058786  0.74943205    -0.57100
N885        N  0.62633379  0.37367912  0.80652054    -0.36500
N886        N  0.62343585  0.43791143  0.75025502    -0.57100
C887        C  0.63089026  0.34168101  0.67176746     0.27100
C888        C  0.62971115  0.40854759  0.67219046     0.27100
C889        C  0.61955705  0.33996263  0.82754158     0.27100
C890        C  0.61856313  0.40680895  0.82799249     0.27100
C891        C  0.62617682  0.28613534  0.71933483     0.35700
C892        C  0.62546329  0.28553937  0.77914391     0.35700
C893        C  0.62372604  0.46298708  0.72055583     0.35700
C894        C  0.62316380  0.46233306  0.78037625     0.35700
C895        C  0.64262183  0.35466124  0.63690586    -0.21800
C896        C  0.64182758  0.39656910  0.63715692    -0.21800
C897        C  0.60779673  0.35194630  0.86267807    -0.21800
C898        C  0.60713915  0.39386188  0.86295369    -0.21800
C899        C  0.62579853  0.24535142  0.73009962    -0.22800
C900        C  0.62617771  0.24499367  0.76781391    -0.22800
C901        C  0.62320390  0.50352387  0.73191573    -0.22800
C902        C  0.62366409  0.50312710  0.76963709    -0.22800
C903        C  0.62860357  0.29985325  0.68233420    -0.18200
C904        C  0.62633991  0.45008617  0.68336296    -0.18200
C905        C  0.62094985  0.44860042  0.81739087    -0.18200
C906        C  0.62290574  0.29845165  0.81633100    -0.18200
H907        H  0.65202142  0.33597060  0.61376698     0.14700
H908        H  0.65050596  0.41596650  0.61425832     0.14700
H909        H  0.59935299  0.33255379  0.88565233     0.14700
H910        H  0.59809250  0.41258147  0.88618953     0.14700
H911        H  0.62548244  0.21833163  0.71287675     0.13000
H912        H  0.62646746  0.21771974  0.78472883     0.13000
H913        H  0.62343138  0.03088585  0.71519253     0.13000
H914        H  0.62464883  0.03010951  0.78706980     0.13000
H915        H  0.61030521  0.37434890  0.71948121     0.26300
H916        H  0.63859482  0.37412804  0.78012790     0.26300
N917        N  0.56124055  0.25242649  0.49958907    -0.36500
N918        N  0.99875466  0.24544338  0.55697460    -0.57100
N919        N  0.93453795  0.24467282  0.50026658    -0.36500
N920        N  0.99707869  0.25181300  0.44289556    -0.57100
C921        C  0.58589123  0.24576115  0.52906231     0.27100
C922        C  0.58481411  0.25024590  0.46892163     0.27100
C923        C  0.91083713  0.24560016  0.53091550     0.27100
C924        C  0.90975889  0.25061056  0.47072911     0.27100
C925        C  0.53229756  0.24159617  0.57857050     0.35700
C926        C  0.96592721  0.23888407  0.57893212     0.35700
C927        C  0.52998746  0.25846697  0.42101995     0.35700
C928        C  0.96355247  0.25645108  0.42138063     0.35700
C929        C  0.62582428  0.24048483  0.51682683    -0.21800
C930        C  0.62501403  0.24268401  0.47907591    -0.21800
C931        C  0.87036016  0.25135394  0.52062585    -0.21800
C932        C  0.86958786  0.25381994  0.48286730    -0.21800
C933        C  0.52058366  0.23202304  0.61431704    -0.22800
C934        C  0.97880105  0.23020273  0.61451342    -0.22800
C935        C  0.51723331  0.26773771  0.38554687    -0.22800
C936        C  0.97542939  0.26641514  0.38574909    -0.22800
C937        C  0.57357132  0.24416291  0.56662876    -0.18200
C938        C  0.57153602  0.25559878  0.43199632    -0.18200
C939        C  0.92218336  0.25380500  0.43322415    -0.18200
C940        C  0.92433351  0.24117675  0.56794471    -0.18200
H941        H  0.65307348  0.23516333  0.53298561     0.14700
H942        H  0.65129581  0.23899359  0.46123831     0.14700
H943        H  0.84384771  0.25385147  0.53834034     0.14700
H944        H  0.84221239  0.25806650  0.46661402     0.14700
H945        H  0.54001466  0.22544735  0.63773132     0.13000
H946        H  0.96019364  0.22244115  0.63817643     0.13000
H947        H  0.53593228  0.27553778  0.36195468     0.13000
H948        H  0.95614890  0.27354745  0.36237506     0.13000
H949        H  0.53085599  0.26132265  0.50044623     0.26300
H950        H  0.96539607  0.23776419  0.49950365     0.26300
C951        C  0.86788528  0.26621703  0.65395348     0.80300
N952        N  0.89530451  0.26748883  0.62586611    -0.78000
C953        C  0.89296763  0.24035984  0.59757752     0.82800
N954        N  0.86262593  0.21192280  0.59727272    -0.77900
C955        C  0.83518901  0.21022829  0.62536979     0.82900
N956        N  0.83786059  0.23740409  0.65366451    -0.79600
C957        C  0.63042374  0.26871748  0.65245128     0.80300
N958        N  0.65907274  0.23855339  0.65300124    -0.78000
C959        C  0.66113551  0.21097249  0.62504352     0.82800
N960        N  0.63423104  0.21333365  0.59659080    -0.77900
C961        C  0.60561896  0.24349039  0.59571034     0.82900
N962        N  0.60400076  0.27115761  0.62364254    -0.79600
N963        N  0.56079285  0.50393328  0.50010108    -0.36500
N964        N  0.99808339  0.49605858  0.44287949    -0.57100
N965        N  0.93421150  0.49565334  0.49974020    -0.36500
N966        N  0.99682526  0.00276292  0.55688537    -0.57100
C967        C  0.58540503  0.49790751  0.47047787     0.27100
C968        C  0.58458914  0.00237027  0.53064336     0.27100
C969        C  0.91033902  0.49690290  0.46919649     0.27100
C970        C  0.90955604  0.00122306  0.52915798     0.27100
C971        C  0.53155714  0.49262415  0.42112483     0.35700
C972        C  0.96512125  0.49039191  0.42087646     0.35700
C973        C  0.52971466  0.00861641  0.57890241     0.35700
C974        C  0.96331115  0.00604026  0.57860365     0.35700
C975        C  0.62558193  0.49409600  0.48247397    -0.21800
C976        C  0.62498870  0.99639829  0.52021747    -0.21800
C977        C  0.86991781  0.50252983  0.47971551    -0.21800
C978        C  0.86938351  0.00493161  0.51713573    -0.21800
C979        C  0.51965066  0.48407204  0.38520625    -0.22800
C980        C  0.97783149  0.48262105  0.38508003    -0.22800
C981        C  0.51690802  0.01628341  0.61469599    -0.22800
C982        C  0.97512948  0.01453804  0.61454655    -0.22800
C983        C  0.57289035  0.49539811  0.43297940    -0.18200
C984        C  0.57128404  0.00644153  0.56776103    -0.18200
C985        C  0.92199821  0.00352244  0.56667264    -0.18200
C986        C  0.92357890  0.49281804  0.43205124    -0.18200
H987        H  0.65286606  0.48964288  0.46613975     0.14700
H988        H  0.65153539  0.99351879  0.53784004     0.14700
H989        H  0.84329551  0.50514714  0.46215361     0.14700
H990        H  0.84206513  0.00918127  0.53347166     0.14700
H991        H  0.53892590  0.47826057  0.36152969     0.13000
H992        H  0.95910699  0.47586867  0.36124520     0.13000
H993        H  0.53553643  0.02323715  0.63854229     0.13000
H994        H  0.95579095  0.02027332  0.63819795     0.13000
H995        H  0.53007850  0.51150701  0.49939932     0.26300
H996        H  0.96503396  0.48860814  0.50039444     0.26300
C997        C  0.60287218  0.00706567  0.59724728     0.80300
N998        N  0.60066687  0.48000797  0.62557159    -0.78000
C999        C  0.62771252  0.48180289  0.65393904     0.82800
N1000       N  0.65734303  0.01100826  0.65377860    -0.77900
C1001       C  0.66036259  0.03769120  0.62513589     0.82900
N1002       N  0.63319385  0.03554761  0.59685443    -0.79600
C1003       C  0.88989184  0.00456996  0.59570012     0.80300
N1004       N  0.86127053  0.03476059  0.59629729    -0.78000
C1005       C  0.83416193  0.03721656  0.62461563     0.82800
N1006       N  0.83589169  0.00964271  0.65257723    -0.77900
C1007       C  0.86409669  0.47909808  0.65220364     0.82900
N1008       N  0.89110318  0.47681678  0.62382380    -0.79600
N1009       N  0.81600479  0.25367399  0.99949359    -0.36500
N1010       N  0.75325702  0.24593041  0.94224202    -0.57100
N1011       N  0.68938801  0.24520916  0.99914983    -0.36500
N1012       N  0.75213678  0.25308632  0.05636715    -0.57100
C1013       C  0.84055569  0.24739270  0.96986527     0.27100
C1014       C  0.83978569  0.25158170  0.03007350     0.27100
C1015       C  0.66546910  0.24590899  0.96862364     0.27100
C1016       C  0.66475256  0.25100870  0.02879835     0.27100
C1017       C  0.78673299  0.24308211  0.92042114     0.35700
C1018       C  0.72031403  0.24008848  0.92024071     0.35700
C1019       C  0.78512471  0.25847160  0.07840148     0.35700
C1020       C  0.71866328  0.25656732  0.07811534     0.35700
C1021       C  0.88064246  0.24279789  0.98188130    -0.21800
C1022       C  0.88003642  0.24477269  0.01963192    -0.21800
C1023       C  0.62501738  0.25137828  0.97913441    -0.21800
C1024       C  0.62448634  0.25396846  0.01687280    -0.21800
C1025       C  0.77484585  0.23489222  0.88443085    -0.22800
C1026       C  0.73306740  0.23286062  0.88435588    -0.22800
C1027       C  0.77245048  0.26605656  0.11423526    -0.22800
C1028       C  0.73062655  0.26483674  0.11407387    -0.22800
C1029       C  0.82807800  0.24537196  0.93233375    -0.18200
C1030       C  0.82664515  0.25579618  0.06721922    -0.18200
C1031       C  0.67729273  0.25390660  0.06627696    -0.18200
C1032       C  0.67873718  0.24182790  0.93148671    -0.18200
H1033       H  0.90786955  0.23796934  0.96556011     0.14700
H1034       H  0.90649838  0.24123350  0.03726612     0.14700
H1035       H  0.59835603  0.25367335  0.96158502     0.14700
H1036       H  0.59719086  0.25804278  0.03328060     0.14700
H1037       H  0.79412062  0.22943232  0.86068674     0.13000
H1038       H  0.71442102  0.22599389  0.86049980     0.13000
H1039       H  0.79120263  0.27249398  0.13812179     0.13000
H1040       H  0.71139676  0.27055535  0.13779584     0.13000
H1041       H  0.78543756  0.26188183  0.99876798     0.26300
H1042       H  0.72028376  0.23848105  0.99981333     0.26300
C1043       C  0.88588291  0.26936239  0.84690064     0.80300
N1044       N  0.85910502  0.27188839  0.87542141    -0.78000
C1045       C  0.86015960  0.24414372  0.90326705     0.82800
N1046       N  0.88859191  0.21377455  0.90258648    -0.77900
C1047       C  0.91562358  0.21114059  0.87421332     0.82900
N1048       N  0.91395528  0.23870720  0.84622979    -0.79600
C1049       C  0.64708037  0.24106782  0.90205516     0.80300
N1050       N  0.61687747  0.21244478  0.90241236    -0.78000
C1051       C  0.58942711  0.21056393  0.87432697     0.82800
N1052       N  0.59208579  0.23755459  0.84591583    -0.77900
C1053       C  0.62174386  0.26672686  0.84570249     0.82900
N1054       N  0.64900433  0.26842401  0.87389774    -0.79600
N1055       N  0.87626303  0.06083331  0.24974775    -0.36500
N1056       N  0.86994484  0.12463198  0.30668292    -0.57100
N1057       N  0.87789820  0.18834993  0.25004948    -0.36500
N1058       N  0.88058963  0.12454509  0.19275125    -0.57100
C1059       C  0.87205949  0.03647641  0.27972126     0.27100
C1060       C  0.87865425  0.03652017  0.21956830     0.27100
C1061       C  0.87024021  0.21253373  0.27965374     0.27100
C1062       C  0.87674254  0.21223290  0.21951272     0.27100
C1063       C  0.86547335  0.09122526  0.32847176     0.35700
C1064       C  0.86561217  0.15790755  0.32861424     0.35700
C1065       C  0.88696880  0.09130030  0.17120341     0.35700
C1066       C  0.88700376  0.15782924  0.17130034     0.35700
C1067       C  0.87566640  0.49608487  0.26882805    -0.21800
C1068       C  0.87911723  0.49600553  0.23109304    -0.21800
C1069       C  0.86569223  0.25270283  0.26766761    -0.21800
C1070       C  0.86920669  0.25238382  0.22992353    -0.21800
C1071       C  0.85722238  0.10350227  0.36431613    -0.22800
C1072       C  0.85728268  0.14538241  0.36441453    -0.22800
C1073       C  0.89763249  0.10372793  0.13589333    -0.22800
C1074       C  0.89762641  0.14562588  0.13595816    -0.22800
C1075       C  0.86794822  0.04962697  0.31695995    -0.18200
C1076       C  0.88356456  0.04973206  0.18242893    -0.18200
C1077       C  0.88276458  0.19922121  0.18251244    -0.18200
C1078       C  0.86735726  0.19955287  0.31708540    -0.18200
H1079       H  0.87617558  0.46906498  0.28607843     0.14700
H1080       H  0.88226264  0.46878459  0.21438004     0.14700
H1081       H  0.86007249  0.27981354  0.28396583     0.14700
H1082       H  0.86641814  0.27894016  0.21224939     0.14700
H1083       H  0.85071032  0.08443766  0.38799676     0.13000
H1084       H  0.85055132  0.16421932  0.38818445     0.13000
H1085       H  0.90555107  0.08472293  0.11251912     0.13000
H1086       H  0.90528873  0.16481963  0.11263342     0.13000
H1087       H  0.87783489  0.09225786  0.24992146     0.26300
H1088       H  0.88675239  0.15803485  0.25084859     0.26300
N1089       N  0.68864845  0.49643361  0.99996916    -0.36500
N1090       N  0.75253242  0.49765387  0.05678504    -0.57100
N1091       N  0.81548421  0.50499438  0.99938489    -0.36500
N1092       N  0.75131934  0.00419255  0.94260183    -0.57100
C1093       C  0.66468176  0.49714567  0.03046698     0.27100
C1094       C  0.66393420  0.00161931  0.97038517     0.27100
C1095       C  0.84009586  0.49902818  0.02901581     0.27100
C1096       C  0.83917711  0.00355917  0.96861904     0.27100
C1097       C  0.71959069  0.49132197  0.07872207     0.35700
C1098       C  0.78608662  0.49344575  0.07834971     0.35700
C1099       C  0.71773586  0.00783349  0.92103086     0.35700
C1100       C  0.78414348  0.01030725  0.92053996     0.35700
C1101       C  0.62419531  0.50213375  0.01988372    -0.21800
C1102       C  0.62361121  0.00397281  0.98227271    -0.21800
C1103       C  0.88032228  0.49573923  0.01703990    -0.21800
C1104       C  0.87958534  0.99746331  0.97898895    -0.21800
C1105       C  0.73239270  0.48270708  0.11431888    -0.22800
C1106       C  0.77419224  0.48405097  0.11410491    -0.22800
C1107       C  0.72942228  0.01693905  0.88517091    -0.22800
C1108       C  0.77122615  0.01856683  0.88488328    -0.22800
C1109       C  0.67796219  0.49318291  0.06760278    -0.18200
C1110       C  0.67647000  0.00447666  0.93292364    -0.18200
C1111       C  0.82573767  0.00766539  0.93150018    -0.18200
C1112       C  0.82750116  0.49582276  0.06647496    -0.18200
H1113       H  0.59747815  0.50426353  0.03737955     0.14700
H1114       H  0.59626213  0.00737210  0.96580666     0.14700
H1115       H  0.90759448  0.49143064  0.03343103     0.14700
H1116       H  0.90608540  0.99451568  0.96131631     0.14700
H1117       H  0.71374896  0.47504506  0.13798117     0.13000
H1118       H  0.79346591  0.47726327  0.13756619     0.13000
H1119       H  0.70997550  0.02293437  0.86164245     0.13000
H1120       H  0.78980537  0.02573033  0.86105237     0.13000
H1121       H  0.71959006  0.48998084  0.99933136     0.26300
H1122       H  0.78465044  0.51196490  0.00011404     0.26300
C1123       C  0.61937559  0.47972859  0.84724224     0.80300
N1124       N  0.64613670  0.47748574  0.87580784    -0.78000
C1125       C  0.64443550  0.00508846  0.90387164     0.82800
N1126       N  0.61557436  0.03502735  0.90322526    -0.77900
C1127       C  0.58856921  0.03730148  0.87484025     0.82900
N1128       N  0.59058375  0.00971415  0.84690812    -0.79600
C1129       C  0.85714121  0.00797467  0.90182795     0.80300
N1130       N  0.88777918  0.03605735  0.90215650    -0.78000
C1131       C  0.91498585  0.03780982  0.87390282     0.82800
N1132       N  0.91190031  0.01092516  0.84541064    -0.77900
C1133       C  0.88181042  0.48212747  0.84532375     0.80100
N1134       N  0.85462830  0.48087432  0.87363941    -0.79600
N1135       N  0.62323253  0.12544027  0.30632201    -0.36500
N1136       N  0.62417910  0.18856135  0.24929474    -0.57100
N1137       N  0.62706884  0.12416096  0.19320437    -0.36500
N1138       N  0.62622973  0.06104402  0.25022738    -0.57100
C1139       C  0.62991691  0.15917295  0.32736966     0.27100
C1140       C  0.63088912  0.09230275  0.32784303     0.27100
C1141       C  0.61937327  0.15731636  0.17171009     0.27100
C1142       C  0.61997653  0.09044368  0.17223249     0.27100
C1143       C  0.62469821  0.21366367  0.27895607     0.35700
C1144       C  0.62434313  0.21293885  0.21916142     0.35700
C1145       C  0.62598248  0.03668772  0.28036498     0.35700
C1146       C  0.62525896  0.03592696  0.22059299     0.35700
C1147       C  0.64143747  0.14716577  0.36256244    -0.21800
C1148       C  0.64209791  0.10526882  0.36284397    -0.21800
C1149       C  0.60772426  0.14437278  0.13682210    -0.21800
C1150       C  0.60813469  0.10247550  0.13714139    -0.21800
C1151       C  0.62477740  0.25419962  0.26755337    -0.22800
C1152       C  0.62537375  0.25373816  0.22983121    -0.22800
C1153       C  0.62442563  0.49590196  0.26973191    -0.22800
C1154       C  0.62482440  0.99539743  0.23201689    -0.22800
C1155       C  0.62687227  0.20073233  0.31614690    -0.18200
C1156       C  0.62850807  0.05047446  0.31730387    -0.18200
C1157       C  0.62289903  0.04886962  0.18342421    -0.18200
C1158       C  0.62194604  0.19914935  0.18220015    -0.18200
H1159       H  0.64981999  0.16652257  0.38557709     0.14700
H1160       H  0.65103018  0.08658091  0.38613066     0.14700
H1161       H  0.59860993  0.16308802  0.11361060     0.14700
H1162       H  0.59937546  0.08312833  0.11423392     0.14700
H1163       H  0.62493780  0.28151838  0.28440999     0.13000
H1164       H  0.62629724  0.28067267  0.21251017     0.13000
H1165       H  0.62327502  0.46900732  0.28709606     0.13000
H1166       H  0.62415009  0.46804998  0.21518966     0.13000
H1167       H  0.61114676  0.12498874  0.27986640     0.26300
H1168       H  0.63943365  0.12458721  0.21956067     0.26300
C1169       C  0.62155054  0.01721043  0.15398191     0.80300
N1170       N  0.64874702  0.01905186  0.12574264    -0.78000
C1171       C  0.64635081  0.49216864  0.09714224     0.82800
N1172       N  0.61600316  0.46368550  0.09664270    -0.77900
C1173       C  0.58876258  0.46144950  0.12489793     0.82900
N1174       N  0.59163179  0.48814234  0.15354621    -0.79600
C1175       C  0.85947272  0.49406734  0.09567379     0.80300
N1176       N  0.88831310  0.46401908  0.09597042    -0.78000
C1177       C  0.91506552  0.46097527  0.12458850     0.82800
N1178       N  0.91285892  0.48806669  0.15299899    -0.77900
C1179       C  0.88450109  0.01824023  0.15283265     0.82900
N1180       N  0.85819672  0.02134568  0.12400680    -0.79600
C1181       C  0.88361716  0.23087430  0.15312902     0.80300
N1182       N  0.85638022  0.22901013  0.12487845    -0.78000
C1183       C  0.85840068  0.25623308  0.09660325     0.82800
N1184       N  0.88869023  0.28474597  0.09617163    -0.77900
C1185       C  0.91583527  0.28700884  0.12446928     0.82900
N1186       N  0.91294740  0.26035298  0.15311921    -0.79600
C1187       C  0.64524405  0.25498713  0.09540828     0.80300
N1188       N  0.61640340  0.28501211  0.09591742    -0.78000
C1189       C  0.58948784  0.28765732  0.12440051     0.82800
N1190       N  0.59168393  0.26036570  0.15259421    -0.77900
C1191       C  0.62036007  0.23022287  0.15226963     0.82900
N1192       N  0.64680351  0.22754721  0.12350856    -0.79600
C1193       C  0.60492263  0.49443918  0.40387853     0.80300
N1194       N  0.63375336  0.46444404  0.40334443    -0.78000
C1195       C  0.66078084  0.46193689  0.37497018     0.82800
N1196       N  0.65867111  0.48929004  0.34682739    -0.77900
C1197       C  0.63010172  0.01936879  0.34716993     0.82900
N1198       N  0.60351552  0.02189381  0.37582790    -0.79600
C1199       C  0.89191957  0.49215781  0.40261282     0.80300
N1200       N  0.89416087  0.01911334  0.37427143    -0.78000
C1201       C  0.86656869  0.01783206  0.34630691     0.82800
N1202       N  0.83696798  0.48841831  0.34640799    -0.77900
C1203       C  0.83444934  0.46140062  0.37482733     0.82900
N1204       N  0.86179943  0.46347676  0.40296636    -0.79600
C1205       C  0.86583781  0.23122244  0.34662438     0.80300
N1206       N  0.89254480  0.22884561  0.37520158    -0.78000
C1207       C  0.89019502  0.25529511  0.40399344     0.82800
N1208       N  0.86077796  0.28475985  0.40398416    -0.77900
C1209       C  0.83390866  0.28754661  0.37544697     0.82900
N1210       N  0.83643980  0.26067042  0.34689347    -0.79600
C1211       C  0.62790154  0.23239733  0.34558913     0.80300
N1212       N  0.65759929  0.26154663  0.34611039    -0.78000
C1213       C  0.66043566  0.28803238  0.37491592     0.82800
N1214       N  0.63337803  0.28537060  0.40327177    -0.77900
C1215       C  0.60306673  0.25686249  0.40252531     0.82900
N1216       N  0.60072800  0.23029832  0.37381467    -0.79600
O1217       O  0.54281031  0.41581699  0.15472473    -0.71700
O1218       O  0.96160897  0.33249907  0.15445596    -0.71900
O1219       O  0.54340498  0.33299169  0.15451391    -0.71800
O1220       O  0.96095501  0.41528514  0.15456368    -0.71800
O1221       O  0.96046948  0.41481948  0.09463815    -0.71700
O1222       O  0.54403938  0.33375766  0.09458790    -0.71700
O1223       O  0.96136098  0.33290083  0.09451808    -0.71700
O1224       O  0.54319856  0.41565170  0.09479247    -0.71900
V1225       V  0.00219900  0.37415113  0.15338959     1.35200
V1226       V  0.00226857  0.37428394  0.09579998     1.35200
C1227       C  0.55691146  0.42977045  0.12480259     0.77600
C1228       C  0.94759867  0.31867790  0.12446477     0.77600
C1229       C  0.55777249  0.31947480  0.12451405     0.77500
C1230       C  0.94668210  0.42899510  0.12459689     0.77400
O1231       O  0.70618432  0.41604132  0.40492669    -0.71700
O1232       O  0.78847773  0.33376440  0.40524685    -0.71900
O1233       O  0.78886959  0.41569225  0.40498043    -0.71800
O1234       O  0.70575164  0.33413867  0.40505248    -0.71800
O1235       O  0.70659303  0.33336359  0.34512724    -0.71700
O1236       O  0.78823896  0.41618886  0.34504576    -0.71700
O1237       O  0.78839735  0.33340949  0.34531510    -0.71700
O1238       O  0.70645631  0.41614891  0.34498818    -0.71900
V1239       V  0.74732161  0.37491629  0.40388431     1.35200
V1240       V  0.74742004  0.37478013  0.34629165     1.35200
C1241       C  0.69238590  0.43008147  0.37493731     0.77600
C1242       C  0.80234898  0.31954355  0.37534119     0.77600
C1243       C  0.80254776  0.42985994  0.37497224     0.77500
C1244       C  0.69220963  0.31977491  0.37506701     0.77400
O1245       O  0.70548849  0.08403169  0.59507395    -0.71700
O1246       O  0.78985932  0.16427847  0.59523859    -0.71900
O1247       O  0.78818314  0.08255187  0.59486757    -0.71800
O1248       O  0.70719297  0.16583758  0.59520234    -0.71800
O1249       O  0.70615323  0.16471458  0.65513666    -0.71700
O1250       O  0.78926447  0.08333702  0.65480901    -0.71700
O1251       O  0.78797737  0.16597855  0.65513350    -0.71700
O1252       O  0.70748369  0.08199883  0.65495315    -0.71900
V1253       V  0.74767234  0.12417830  0.59625572     1.35200
V1254       V  0.74771559  0.12400798  0.65384732     1.35200
C1255       C  0.69243873  0.06912152  0.62502712     0.77600
C1256       C  0.80300424  0.17896216  0.62523941     0.77600
C1257       C  0.80267563  0.06904022  0.62476637     0.77500
C1258       C  0.69273729  0.17921523  0.62517219     0.77400
O1259       O  0.96019122  0.08380354  0.90400159    -0.71700
O1260       O  0.54394099  0.16461251  0.90433210    -0.71900
O1261       O  0.96123556  0.16558926  0.90416478    -0.71800
O1262       O  0.54275414  0.08285052  0.90442507    -0.71800
O1263       O  0.54363143  0.08333295  0.84447834    -0.71700
O1264       O  0.96086762  0.16508437  0.84421756    -0.71700
O1265       O  0.54266975  0.16602470  0.84441681    -0.71700
O1266       O  0.96188063  0.08236054  0.84409297    -0.71900
V1267       V  0.00202779  0.12421879  0.90306337     1.35200
V1268       V  0.00225647  0.12421029  0.84546348     1.35200
C1269       C  0.94706079  0.06915326  0.87398596     0.77600
C1270       C  0.55736485  0.17917435  0.87438709     0.77600
C1271       C  0.94710287  0.17926271  0.87418298     0.77500
C1272       C  0.55709437  0.06913862  0.87454492     0.77400
N1273       N  0.86980729  0.93767883  0.74921384    -0.36500
N1274       N  0.86935128  0.87334739  0.69258450    -0.57100
N1275       N  0.87999435  0.81100305  0.74965649    -0.36500
N1276       N  0.88012344  0.87530982  0.80629399    -0.57100
C1277       C  0.87007706  0.96137527  0.71854190     0.27100
C1278       C  0.87634387  0.96253903  0.77860078     0.27100
C1279       C  0.87309411  0.78616564  0.72032998     0.27100
C1280       C  0.87966701  0.78731023  0.78033067     0.27100
C1281       C  0.86255268  0.90615906  0.67065396     0.35700
C1282       C  0.86564184  0.83973757  0.67101625     0.35700
C1283       C  0.88384015  0.90892589  0.82787075     0.35700
C1284       C  0.88724416  0.84251089  0.82816897     0.35700
C1285       C  0.87598833  0.00193010  0.72871591    -0.21800
C1286       C  0.87928275  0.00273820  0.76641655    -0.21800
C1287       C  0.86993174  0.74599018  0.73254701    -0.21800
C1288       C  0.87341609  0.74679816  0.77021450    -0.21800
C1289       C  0.85376961  0.89320523  0.63510506    -0.22800
C1290       C  0.85580724  0.85137548  0.63530665    -0.22800
C1291       C  0.89393952  0.89728937  0.86351521    -0.22800
C1292       C  0.89618028  0.85547712  0.86367281    -0.22800
C1293       C  0.86507115  0.94779267  0.68158966    -0.18200
C1294       C  0.88016143  0.95020813  0.81604507    -0.18200
C1295       C  0.88484706  0.80086388  0.81725188    -0.18200
C1296       C  0.86918497  0.79847651  0.68291005    -0.18200
H1297       H  0.87803924  0.52835954  0.71124523     0.14700
H1298       H  0.88392676  0.52994508  0.78289898     0.14700
H1299       H  0.86498032  0.71861896  0.71639825     0.14700
H1300       H  0.87114040  0.72029199  0.78798912     0.14700
H1301       H  0.84602570  0.91179370  0.61141547     0.13000
H1302       H  0.84954748  0.83186431  0.61186233     0.13000
H1303       H  0.90030384  0.91679810  0.88693615     0.13000
H1304       H  0.90418748  0.83690591  0.88730084     0.13000
H1305       H  0.86280743  0.90680947  0.75017358     0.26300
H1306       H  0.88732020  0.84180648  0.74864391     0.26300
N1307       N  0.62285784  0.87487959  0.69323789    -0.36500
N1308       N  0.62583444  0.81062036  0.74944882    -0.57100
N1309       N  0.62639446  0.87367604  0.80658401    -0.36500
N1310       N  0.62353941  0.93794576  0.75034369    -0.57100
C1311       C  0.63090573  0.84177011  0.67179044     0.27100
C1312       C  0.62964231  0.90864033  0.67224913     0.27100
C1313       C  0.61951861  0.83994929  0.82756127     0.27100
C1314       C  0.61854556  0.90678878  0.82805040     0.27100
C1315       C  0.62645518  0.78617915  0.71934431     0.35700
C1316       C  0.62566506  0.78556487  0.77915645     0.35700
C1317       C  0.62386896  0.96305191  0.72066524     0.35700
C1318       C  0.62337912  0.96233739  0.78048434     0.35700
C1319       C  0.64249291  0.85478893  0.63690291    -0.21800
C1320       C  0.64164538  0.89669241  0.63717571    -0.21800
C1321       C  0.60762655  0.85190594  0.86266998    -0.21800
C1322       C  0.60698131  0.89382175  0.86296942    -0.21800
C1323       C  0.62626856  0.74539042  0.73010786    -0.22800
C1324       C  0.62658685  0.74502673  0.76782450    -0.22800
C1325       C  0.62351891  0.00357902  0.73206474    -0.22800
C1326       C  0.62403797  0.00313945  0.76978435    -0.22800
C1327       C  0.62873379  0.79992564  0.68233711    -0.18200
C1328       C  0.62630394  0.95017612  0.68345213    -0.18200
C1329       C  0.62100874  0.94858130  0.81747912    -0.18200
C1330       C  0.62293374  0.79845357  0.81633757    -0.18200
H1331       H  0.65184689  0.83612929  0.61372940     0.14700
H1332       H  0.65023842  0.91610528  0.61426250     0.14700
H1333       H  0.59910120  0.83249452  0.88560749     0.14700
H1334       H  0.59785944  0.91252890  0.88618981     0.14700
H1335       H  0.62608054  0.71836782  0.71288942     0.13000
H1336       H  0.62695242  0.71775614  0.78474481     0.13000
H1337       H  0.62306832  0.53080747  0.71501132     0.13000
H1338       H  0.62417389  0.53012131  0.78689308     0.13000
H1339       H  0.61047795  0.87439095  0.71958850     0.26300
H1340       H  0.63877313  0.87414164  0.78023422     0.26300
N1341       N  0.56108529  0.75252768  0.49957995    -0.36500
N1342       N  0.99865795  0.74542751  0.55700866    -0.57100
N1343       N  0.93438216  0.74439795  0.50035811    -0.36500
N1344       N  0.99688162  0.75169525  0.44294182    -0.57100
C1345       C  0.58575401  0.74581367  0.52904021     0.27100
C1346       C  0.58462809  0.75026930  0.46888885     0.27100
C1347       C  0.91069820  0.74529385  0.53101084     0.27100
C1348       C  0.90956306  0.75021343  0.47083735     0.27100
C1349       C  0.53222293  0.74175594  0.57860826     0.35700
C1350       C  0.96585621  0.73886935  0.57899878     0.35700
C1351       C  0.52977057  0.75835953  0.42101227     0.35700
C1352       C  0.96331189  0.75616908  0.42145212     0.35700
C1353       C  0.62565504  0.74041779  0.51676533    -0.21800
C1354       C  0.62481187  0.74260165  0.47901534    -0.21800
C1355       C  0.87018785  0.75088616  0.52073628    -0.21800
C1356       C  0.86938412  0.75329150  0.48297965    -0.21800
C1357       C  0.52053900  0.73228564  0.61438540    -0.22800
C1358       C  0.97876619  0.73034847  0.61459985    -0.22800
C1359       C  0.51695039  0.76746956  0.38552653    -0.22800
C1360       C  0.97512276  0.76604031  0.38577882    -0.22800
C1361       C  0.57348869  0.74429222  0.56663194    -0.18200
C1362       C  0.57134288  0.75561873  0.43195988    -0.18200
C1363       C  0.92195825  0.75343476  0.43334214    -0.18200
C1364       C  0.92425075  0.74102770  0.56803046    -0.18200
H1365       H  0.65291052  0.73502765  0.53289439     0.14700
H1366       H  0.65106193  0.73881619  0.46115624     0.14700
H1367       H  0.84367418  0.75334256  0.53845317     0.14700
H1368       H  0.84199116  0.75743512  0.46672526     0.14700
H1369       H  0.53998423  0.72582216  0.63781413     0.13000
H1370       H  0.96019060  0.72261399  0.63829056     0.13000
H1371       H  0.53559847  0.77522154  0.36188987     0.13000
H1372       H  0.95580409  0.77304109  0.36239872     0.13000
H1373       H  0.53072691  0.76152824  0.50046140     0.26300
H1374       H  0.96527248  0.73763457  0.49958354     0.26300
C1375       C  0.86780671  0.76629833  0.65395962     0.80300
N1376       N  0.89525143  0.76747306  0.62589493    -0.78000
C1377       C  0.89292114  0.74026639  0.59767441     0.82800
N1378       N  0.86257090  0.71185203  0.59741300    -0.77900
C1379       C  0.83508784  0.71028087  0.62546840     0.82900
N1380       N  0.83773055  0.73753988  0.65369696    -0.79600
C1381       C  0.63050142  0.76881325  0.65241567     0.80300
N1382       N  0.65916051  0.73866008  0.65289825    -0.78000
C1383       C  0.66115614  0.71106424  0.62494852     0.82800
N1384       N  0.63419610  0.71343291  0.59653434    -0.77900
C1385       C  0.60558518  0.74360142  0.59569358     0.82900
N1386       N  0.60401624  0.77125707  0.62364605    -0.79600
N1387       N  0.56079008  0.00376803  0.50005879    -0.36500
N1388       N  0.99819173  0.99583321  0.44277877    -0.57100
N1389       N  0.93422867  0.99537804  0.49955632    -0.36500
N1390       N  0.99689359  0.50292647  0.55702763    -0.57100
C1391       C  0.58545578  0.99788354  0.47044881     0.27100
C1392       C  0.58461106  0.50244373  0.53066810     0.27100
C1393       C  0.91043645  0.99675578  0.46897764     0.27100
C1394       C  0.90956916  0.50117979  0.52941748     0.27100
C1395       C  0.53168351  0.99251552  0.42104479     0.35700
C1396       C  0.96527506  0.99005800  0.42075404     0.35700
C1397       C  0.52980939  0.50888489  0.57897396     0.35700
C1398       C  0.96341393  0.50622756  0.57878751     0.35700
C1399       C  0.62563602  0.99424529  0.48246765    -0.21800
C1400       C  0.62497658  0.49628549  0.52022258    -0.21800
C1401       C  0.87003854  0.00278893  0.47938735    -0.21800
C1402       C  0.86933847  0.50454442  0.51747924    -0.21800
C1403       C  0.51983416  0.98394866  0.38511305    -0.22800
C1404       C  0.97803269  0.98235248  0.38495845    -0.22800
C1405       C  0.51706373  0.51664641  0.61477037    -0.22800
C1406       C  0.97528823  0.51483848  0.61469508    -0.22800
C1407       C  0.57299329  0.99534294  0.43294086    -0.18200
C1408       C  0.57135366  0.50659573  0.56778828    -0.18200
C1409       C  0.92208234  0.50356081  0.56692460    -0.18200
C1410       C  0.92373096  0.99244982  0.43189146    -0.18200
H1411       H  0.65294964  0.98993502  0.46614067     0.14700
H1412       H  0.65152293  0.49330532  0.53783381     0.14700
H1413       H  0.84348953  0.00561161  0.46175891     0.14700
H1414       H  0.84202840  0.50848195  0.53389274     0.14700
H1415       H  0.53914181  0.97820255  0.36144528     0.13000
H1416       H  0.95935014  0.97556641  0.36110460     0.13000
H1417       H  0.53574454  0.52364668  0.63857433     0.13000
H1418       H  0.95597727  0.52056878  0.63836665     0.13000
H1419       H  0.53003525  0.01116253  0.49933698     0.26300
H1420       H  0.96497044  0.98795219  0.50028360     0.26300
C1421       C  0.60296656  0.50711046  0.59723415     0.80300
N1422       N  0.60056929  0.98002771  0.62563819    -0.78000
C1423       C  0.62758244  0.98191097  0.65403018     0.82800
N1424       N  0.65749309  0.51088150  0.65372522    -0.77900
C1425       C  0.66049833  0.53762228  0.62512435     0.82900
N1426       N  0.63331177  0.53555674  0.59685936    -0.79600
C1427       C  0.89000983  0.50461819  0.59600090     0.80300
N1428       N  0.86136301  0.53478807  0.59657396    -0.78000
C1429       C  0.83421353  0.53723657  0.62486343     0.82800
N1430       N  0.83588189  0.50961639  0.65279675    -0.77900
C1431       C  0.86409771  0.97912722  0.65196466     0.82900
N1432       N  0.89100944  0.97678314  0.62352609    -0.79600
N1433       N  0.81584233  0.75372396  0.99947089    -0.36500
N1434       N  0.75315387  0.74577271  0.94221852    -0.57100
N1435       N  0.68923287  0.74513027  0.99910745    -0.36500
N1436       N  0.75195891  0.75325441  0.05632294    -0.57100
C1437       C  0.84041191  0.74737734  0.96985556     0.27100
C1438       C  0.83959932  0.75168149  0.03007870     0.27100
C1439       C  0.66532713  0.74576451  0.96857801     0.27100
C1440       C  0.66458110  0.75093823  0.02873833     0.27100
C1441       C  0.78663168  0.74303346  0.92038439     0.35700
C1442       C  0.72021181  0.73995522  0.92021212     0.35700
C1443       C  0.78491958  0.75879929  0.07835739     0.35700
C1444       C  0.71846902  0.75681232  0.07803521     0.35700
C1445       C  0.88047913  0.74276356  0.98190790    -0.21800
C1446       C  0.87984726  0.74481615  0.01966250    -0.21800
C1447       C  0.62485943  0.75119987  0.97907154    -0.21800
C1448       C  0.62431204  0.75383740  0.01680739    -0.21800
C1449       C  0.77474923  0.73491273  0.88438158    -0.22800
C1450       C  0.73297125  0.73281821  0.88431208    -0.22800
C1451       C  0.77221043  0.76658768  0.11414440    -0.22800
C1452       C  0.73038579  0.76532175  0.11396029    -0.22800
C1453       C  0.82797563  0.74536797  0.93230016    -0.18200
C1454       C  0.82644693  0.75603365  0.06722452    -0.18200
C1455       C  0.67712074  0.75394017  0.06620239    -0.18200
C1456       C  0.67863025  0.74169323  0.93145331    -0.18200
H1457       H  0.90770912  0.73788405  0.96560232     0.14700
H1458       H  0.90629504  0.74130808  0.03731801     0.14700
H1459       H  0.59820128  0.75345918  0.96151394     0.14700
H1460       H  0.59701446  0.75793327  0.03321075     0.14700
H1461       H  0.79402859  0.72955924  0.86062097     0.13000
H1462       H  0.71432876  0.72600081  0.86044182     0.13000
H1463       H  0.79094807  0.77315431  0.13801198     0.13000
H1464       H  0.71111666  0.77113082  0.13764037     0.13000
H1465       H  0.78528733  0.76198111  0.99871313     0.26300
H1466       H  0.72014167  0.73846426  0.99978710     0.26300
C1467       C  0.88586674  0.76951276  0.84689185     0.80300
N1468       N  0.85907271  0.77200023  0.87541518    -0.78000
C1469       C  0.86008793  0.74419261  0.90322535     0.82800
N1470       N  0.88850143  0.71379958  0.90249940    -0.77900
C1471       C  0.91553116  0.71117050  0.87411662     0.82900
N1472       N  0.91389000  0.73879890  0.84617057    -0.79600
C1473       C  0.64699821  0.74098530  0.90201886     0.80300
N1474       N  0.61680236  0.71236575  0.90232948    -0.78000
C1475       C  0.58936905  0.71053319  0.87423532     0.82800
N1476       N  0.59205304  0.73754377  0.84584216    -0.77900
C1477       C  0.62170863  0.76671833  0.84568620     0.82900
N1478       N  0.64893170  0.76839205  0.87390723    -0.79600
N1479       N  0.87287666  0.56094768  0.24949984    -0.36500
N1480       N  0.87010780  0.62449500  0.30672546    -0.57100
N1481       N  0.87822316  0.68816850  0.25001760    -0.36500
N1482       N  0.88054817  0.62458640  0.19274517    -0.57100
C1483       C  0.87173843  0.53662194  0.27975535     0.27100
C1484       C  0.87825080  0.53658776  0.21962611     0.27100
C1485       C  0.87137633  0.71244253  0.27973176     0.27100
C1486       C  0.87779307  0.71228517  0.21959001     0.27100
C1487       C  0.86452897  0.59117988  0.32838828     0.35700
C1488       C  0.86535862  0.65777979  0.32855005     0.35700
C1489       C  0.88584195  0.59129702  0.17103462     0.35700
C1490       C  0.88656562  0.65785108  0.17115915     0.35700
C1491       C  0.87233354  0.99586388  0.26836915    -0.21800
C1492       C  0.87583121  0.99591710  0.23060964    -0.21800
C1493       C  0.86819489  0.75281840  0.26797017    -0.21800
C1494       C  0.87163053  0.75261744  0.23022971    -0.21800
C1495       C  0.85559384  0.60346285  0.36407663    -0.22800
C1496       C  0.85605582  0.64533357  0.36418718    -0.22800
C1497       C  0.89582578  0.60369159  0.13553637    -0.22800
C1498       C  0.89622541  0.64558207  0.13562056    -0.22800
C1499       C  0.86727099  0.54965983  0.31695670    -0.18200
C1500       C  0.88273728  0.54972220  0.18240298    -0.18200
C1501       C  0.88294906  0.69928861  0.18246011    -0.18200
C1502       C  0.86769047  0.69938810  0.31707146    -0.18200
H1503       H  0.87008663  0.96866323  0.28524705     0.14700
H1504       H  0.87625109  0.96880374  0.21349440     0.14700
H1505       H  0.86345582  0.77997107  0.28445280     0.14700
H1506       H  0.86960214  0.77937692  0.21272677     0.14700
H1507       H  0.84844007  0.58438964  0.38760583     0.13000
H1508       H  0.84896963  0.66424556  0.38782661     0.13000
H1509       H  0.90313198  0.58469624  0.11199990     0.13000
H1510       H  0.90356010  0.66470496  0.11216473     0.13000
H1511       H  0.86824452  0.59216966  0.24911172     0.26300
H1512       H  0.88553349  0.65741324  0.25066138     0.26300
N1513       N  0.68864231  0.99659069  0.00006324    -0.36500
N1514       N  0.75269163  0.99777108  0.05678986    -0.57100
N1515       N  0.81547383  0.00500994  0.99928194    -0.36500
N1516       N  0.75145484  0.50432140  0.94263527    -0.57100
C1517       C  0.66472274  0.99711245  0.03058339     0.27100
C1518       C  0.66402098  0.50170149  0.97026599     0.27100
C1519       C  0.84014898  0.99893976  0.02886874     0.27100
C1520       C  0.83930152  0.50383402  0.96879219     0.27100
C1521       C  0.71977324  0.99153318  0.07878536     0.35700
C1522       C  0.78628745  0.99380717  0.07835205     0.35700
C1523       C  0.71792219  0.50776636  0.92097285     0.35700
C1524       C  0.78433620  0.51029280  0.92060564     0.35700
C1525       C  0.62417752  0.00179891  0.02003708    -0.21800
C1526       C  0.62370017  0.50434057  0.98212166    -0.21800
C1527       C  0.88029276  0.99522253  0.01676983    -0.21800
C1528       C  0.87973386  0.49809362  0.97926638    -0.21800
C1529       C  0.73264687  0.98317206  0.11441429    -0.22800
C1530       C  0.77444957  0.98462731  0.11416401    -0.22800
C1531       C  0.72969977  0.51664727  0.88509110    -0.22800
C1532       C  0.77150022  0.51831586  0.88488258    -0.22800
C1533       C  0.67810554  0.99324201  0.06770087    -0.18200
C1534       C  0.67662237  0.50449938  0.93280900    -0.18200
C1535       C  0.82591390  0.50773877  0.93164595    -0.18200
C1536       C  0.82768889  0.99610129  0.06640479    -0.18200
H1537       H  0.59746134  0.00374816  0.03754943     0.14700
H1538       H  0.59638900  0.50795182  0.96564661     0.14700
H1539       H  0.90759037  0.99073776  0.03308572     0.14700
H1540       H  0.90632718  0.49540948  0.96167567     0.14700
H1541       H  0.71405377  0.97561687  0.13813578     0.13000
H1542       H  0.79376306  0.97803521  0.13764353     0.13000
H1543       H  0.71032035  0.52247228  0.86148512     0.13000
H1544       H  0.79012791  0.52534616  0.86105027     0.13000
H1545       H  0.71964714  0.99049531  0.99940934     0.26300
H1546       H  0.78473046  0.01240135  0.00007472     0.26300
C1547       C  0.61934492  0.97968641  0.84733564     0.80300
N1548       N  0.64601285  0.97740193  0.87596278    -0.78000
C1549       C  0.64461724  0.50518911  0.90371261     0.82800
N1550       N  0.61573682  0.53511884  0.90310536    -0.77900
C1551       C  0.58862205  0.53733155  0.87479834     0.82900
N1552       N  0.59057204  0.50971450  0.84688742    -0.79600
C1553       C  0.85735719  0.50789248  0.90201951     0.80300
N1554       N  0.88791723  0.53604714  0.90221974    -0.78000
C1555       C  0.91508834  0.53773793  0.87394424     0.82800
N1556       N  0.91202471  0.51075314  0.84552924    -0.77900
C1557       C  0.88163526  0.98235428  0.84509032     0.80100
N1558       N  0.85438048  0.98108499  0.87335014    -0.79600
N1559       N  0.62317852  0.62546335  0.30630315    -0.36500
N1560       N  0.62413267  0.68854585  0.24925504    -0.57100
N1561       N  0.62699845  0.62412233  0.19315312    -0.36500
N1562       N  0.62612965  0.56104146  0.25019827    -0.57100
C1563       C  0.62985528  0.65919811  0.32734716     0.27100
C1564       C  0.63080359  0.59233106  0.32783359     0.27100
C1565       C  0.61937033  0.65727875  0.17164211     0.27100
C1566       C  0.61994886  0.59040054  0.17217396     0.27100
C1567       C  0.62465289  0.71366027  0.27891254     0.35700
C1568       C  0.62430565  0.71291033  0.21911110     0.35700
C1569       C  0.62589828  0.53670311  0.28035112     0.35700
C1570       C  0.62516910  0.53590881  0.22056795     0.35700
C1571       C  0.64135637  0.64720140  0.36254813    -0.21800
C1572       C  0.64199894  0.60530251  0.36283930    -0.21800
C1573       C  0.60781637  0.64432887  0.13672779    -0.21800
C1574       C  0.60820648  0.60243100  0.13705473    -0.21800
C1575       C  0.62475701  0.75418941  0.26749714    -0.22800
C1576       C  0.62535683  0.75371258  0.22977443    -0.22800
C1577       C  0.62448136  0.99589217  0.26973584    -0.22800
C1578       C  0.62475631  0.49538789  0.23201044    -0.22800
C1579       C  0.62679377  0.70074813  0.31611412    -0.18200
C1580       C  0.62839488  0.55050478  0.31729611    -0.18200
C1581       C  0.62283155  0.54882677  0.18338357    -0.18200
C1582       C  0.62191053  0.69911549  0.18214470    -0.18200
H1583       H  0.64972114  0.66656607  0.38556336     0.14700
H1584       H  0.65090107  0.58661713  0.38613713     0.14700
H1585       H  0.59876906  0.66303590  0.11349024     0.14700
H1586       H  0.59949758  0.58308724  0.11412952     0.14700
H1587       H  0.62493648  0.78151288  0.28434767     0.13000
H1588       H  0.62630644  0.78064243  0.21244920     0.13000
H1589       H  0.62331028  0.96899188  0.28709234     0.13000
H1590       H  0.62420540  0.96806615  0.21518817     0.13000
H1591       H  0.61110024  0.62500402  0.27984574     0.26300
H1592       H  0.63928384  0.62455385  0.21953734     0.26300
C1593       C  0.62148154  0.51715094  0.15394020     0.80300
N1594       N  0.64865430  0.51899550  0.12567718    -0.78000
C1595       C  0.64653068  0.99215273  0.09726341     0.82800
N1596       N  0.61622089  0.96362520  0.09677656    -0.77900
C1597       C  0.58891685  0.96143242  0.12498450     0.82900
N1598       N  0.59172127  0.98817952  0.15359467    -0.79600
C1599       C  0.85977398  0.99437213  0.09556106     0.80300
N1600       N  0.88843143  0.96414260  0.09589902    -0.78000
C1601       C  0.91505964  0.96086615  0.12459196     0.82800
N1602       N  0.91282536  0.98777978  0.15311620    -0.77900
C1603       C  0.88411205  0.51816042  0.15286569     0.82900
N1604       N  0.85766984  0.52094365  0.12414834    -0.79600
C1605       C  0.88364734  0.73101568  0.15307533     0.80300
N1606       N  0.85619047  0.72932523  0.12496577    -0.78000
C1607       C  0.85818535  0.75653142  0.09665380     0.82800
N1608       N  0.88853593  0.78498411  0.09614094    -0.77900
C1609       C  0.91582777  0.78713367  0.12433407     0.82900
N1610       N  0.91307387  0.76039103  0.15292243    -0.79600
C1611       C  0.64509310  0.75495597  0.09532690     0.80300
N1612       N  0.61628739  0.78499644  0.09587865    -0.78000
C1613       C  0.58943669  0.78766269  0.12439704     0.82800
N1614       N  0.59164313  0.76036207  0.15258384    -0.77900
C1615       C  0.62029806  0.73019753  0.15221883     0.82900
N1616       N  0.64670563  0.72752349  0.12343007    -0.79600
C1617       C  0.60506199  0.99440596  0.40387637     0.80300
N1618       N  0.63390031  0.96441525  0.40335391    -0.78000
C1619       C  0.66091570  0.96188955  0.37496903     0.82800
N1620       N  0.65879818  0.98923781  0.34681814    -0.77900
C1621       C  0.62996562  0.51940761  0.34716987     0.82900
N1622       N  0.60337579  0.52193326  0.37583016    -0.79600
C1623       C  0.89213448  0.99181636  0.40245109     0.80300
N1624       N  0.89381744  0.51947039  0.37440497    -0.78000
C1625       C  0.86635912  0.51786394  0.34631615     0.82800
N1626       N  0.83683412  0.98870239  0.34651574    -0.77900
C1627       C  0.83438837  0.96146887  0.37479237     0.82900
N1628       N  0.86186957  0.96330046  0.40283539    -0.79600
C1629       C  0.86596264  0.73098125  0.34662175     0.80300
N1630       N  0.89238761  0.72840782  0.37537614    -0.78000
C1631       C  0.88994306  0.75483243  0.40415769     0.82800
N1632       N  0.86056624  0.78433635  0.40406156    -0.77900
C1633       C  0.83390610  0.78727819  0.37537465     0.82900
N1634       N  0.83663970  0.76052242  0.34673206    -0.79600
C1635       C  0.62778614  0.73242216  0.34555292     0.80300
N1636       N  0.65752893  0.76151874  0.34611782    -0.78000
C1637       C  0.66037723  0.78799255  0.37492794     0.82800
N1638       N  0.63326036  0.78537847  0.40325483    -0.77900
C1639       C  0.60288465  0.75692274  0.40246540     0.82900
N1640       N  0.60056580  0.73035699  0.37374900    -0.79600
O1641       O  0.54284313  0.91585373  0.15475078    -0.71700
O1642       O  0.96164225  0.83252687  0.15434548    -0.71900
O1643       O  0.54342275  0.83303355  0.15450850    -0.71800
O1644       O  0.96097061  0.91524543  0.15450635    -0.71800
O1645       O  0.96059117  0.91489999  0.09457667    -0.71700
O1646       O  0.54406826  0.83378949  0.09457997    -0.71700
O1647       O  0.96139753  0.83301821  0.09440709    -0.71700
O1648       O  0.54334888  0.91567798  0.09481966    -0.71900
V1649       V  0.00222793  0.87417050  0.15335418     1.35200
V1650       V  0.00236078  0.87434623  0.09576278     1.35200
C1651       C  0.55702402  0.92978568  0.12484917     0.77600
C1652       C  0.94761247  0.81877474  0.12433600     0.77600
C1653       C  0.55776868  0.81949730  0.12451390     0.77500
C1654       C  0.94670961  0.92895755  0.12454212     0.77400
O1655       O  0.70629699  0.91593463  0.40489644    -0.71700
O1656       O  0.78854691  0.83359958  0.40514909    -0.71900
O1657       O  0.78895120  0.91557752  0.40487970    -0.71800
O1658       O  0.70581763  0.83402858  0.40504142    -0.71800
O1659       O  0.70660906  0.83325234  0.34511749    -0.71700
O1660       O  0.78829365  0.91609946  0.34494772    -0.71700
O1661       O  0.78843508  0.83323591  0.34522041    -0.71700
O1662       O  0.70652525  0.91604567  0.34495891    -0.71900
V1663       V  0.74741379  0.87478830  0.40382173     1.35200
V1664       V  0.74747082  0.87465366  0.34623161     1.35200
C1665       C  0.69249099  0.92999450  0.37491674     0.77600
C1666       C  0.80237759  0.81933603  0.37524105     0.77600
C1667       C  0.80255737  0.92982856  0.37487521     0.77500
C1668       C  0.69221808  0.81968830  0.37506917     0.77400
O1669       O  0.70562009  0.58396101  0.59511204    -0.71700
O1670       O  0.78982130  0.66432970  0.59534248    -0.71900
O1671       O  0.78830001  0.58259879  0.59503957    -0.71800
O1672       O  0.70716971  0.66578530  0.59516892    -0.71800
O1673       O  0.70609115  0.66477195  0.65510305    -0.71700
O1674       O  0.78921671  0.58337538  0.65498144    -0.71700
O1675       O  0.78789540  0.66603839  0.65523836    -0.71700
O1676       O  0.70744535  0.58204155  0.65500063    -0.71900
V1677       V  0.74771689  0.62417241  0.59632702     1.35200
V1678       V  0.74765756  0.62405716  0.65391992     1.35200
C1679       C  0.69251935  0.56908439  0.62505741     0.77600
C1680       C  0.80291993  0.67902907  0.62534936     0.77600
C1681       C  0.80271370  0.56907481  0.62496760     0.77500
C1682       C  0.69270381  0.67923496  0.62511088     0.77400
O1683       O  0.96022511  0.58379222  0.90396403    -0.71700
O1684       O  0.54386241  0.66465688  0.90424137    -0.71900
O1685       O  0.96115239  0.66558421  0.90407031    -0.71800
O1686       O  0.54278328  0.58290042  0.90439058    -0.71800
O1687       O  0.54362664  0.58331504  0.84444423    -0.71700
O1688       O  0.96081718  0.66507643  0.84412596    -0.71700
O1689       O  0.54263652  0.66599711  0.84432192    -0.71700
O1690       O  0.96187452  0.58232369  0.84405298    -0.71900
V1691       V  0.00199697  0.62423974  0.90300325     1.35200
V1692       V  0.00222587  0.62419052  0.84540308     1.35200
C1693       C  0.94710567  0.56911053  0.87396202     0.77600
C1694       C  0.55730294  0.67917624  0.87428985     0.77600
C1695       C  0.94702803  0.67926612  0.87408350     0.77500
C1696       C  0.55712260  0.56916236  0.87451665     0.77400
loop_ 
_geom_bond_atom_site_label_1 
_geom_bond_atom_site_label_2 
_geom_bond_distance 
_geom_bond_site_symmetry_2 
_ccdc_geom_bond_type 
N1            C6   1.357       .  A
N1            C5   1.355       .  A
N1           H33   1.034       .  S
N2            C9   1.353       .  A
N2           C10   1.353       .  A
N3            C8   1.355       .  A
N3            C7   1.356       .  A
N3           H34   1.034       .  S
N4           C11   1.353       .  A
N4           C12   1.353       .  A
C5           C13   1.388       .  A
C5           C21   1.421       .  A
C6           C22   1.422       .  A
C6           C14   1.388       .  A
C7           C15   1.388       .  A
C7           C24   1.421       .  A
C8           C23   1.420       .  A
C8           C16   1.388       .  A
C9           C21   1.418       .  A
C9           C17   1.387       .  A
C10          C24   1.419       .  A
C10          C18   1.388       .  A
C11          C19   1.387       .  A
C11          C22   1.419       .  A
C12          C20   1.387       .  A
C12          C23   1.418       .  A
C13          C14   1.372       .  A
C13         H449   1.082       .  S
C14         H450   1.081       .  S
C15          C16   1.371       .  A
C15          H27   1.081       .  S
C16          H28   1.082       .  S
C17          C18   1.367       .  A
C17          H29   1.082       .  S
C18          H30   1.082       .  S
C19          C20   1.367       .  A
C19          H31   1.082       .  S
C20          H32   1.082       .  S
C21         C159   1.484       .  S
C22         C285   1.488       .  S
C23         C195   1.484       .  S
C24         C103   1.486       .  S
H25         C437   1.082       .  S
H26         C438   1.081       .  S
N35          C40   1.358       .  A
N35          C39   1.357       .  A
N35          H67   1.038       .  S
N36          C43   1.352       .  A
N36          C44   1.353       .  A
N37          C42   1.357       .  A
N37          C41   1.357       .  A
N37          H68   1.038       .  S
N38          C45   1.353       .  A
N38          C46   1.353       .  A
C39          C47   1.388       .  A
C39          C55   1.420       .  A
C40          C56   1.419       .  A
C40          C48   1.387       .  A
C41          C49   1.387       .  A
C41          C58   1.419       .  A
C42          C57   1.420       .  A
C42          C50   1.388       .  A
C43          C55   1.417       .  A
C43          C51   1.387       .  A
C44          C58   1.416       .  A
C44          C52   1.386       .  A
C45          C53   1.386       .  A
C45          C56   1.416       .  A
C46          C54   1.388       .  A
C46          C57   1.417       .  A
C47          C48   1.368       .  A
C47          H59   1.082       .  S
C48          H60   1.082       .  S
C49          C50   1.368       .  A
C49          H61   1.082       .  S
C50          H62   1.082       .  S
C51          C52   1.368       .  A
C51          H63   1.081       .  S
C52          H64   1.081       .  S
C53          C54   1.368       .  A
C53         H489   1.081       .  S
C54         H490   1.081       .  S
C55         C109   1.487       .  S
C56         C151   1.488       .  S
C57         C275   1.486       .  S
C58         C205   1.486       .  S
H65         C477   1.081       .  S
H66         C478   1.081       .  S
N69          C74   1.355       .  A
N69          C73   1.356       .  A
N69         H101   1.035       .  S
N70          C78   1.353       .  A
N70         C925   1.353       .  A
N71          C76   1.357       .  A
N71          C75   1.355       .  A
N71         H102   1.034       .  S
N72          C80   1.354       .  A
N72         C927   1.353       .  A
C73          C81   1.389       .  A
C73          C89   1.422       .  A
C74          C90   1.419       .  A
C74          C82   1.386       .  A
C75          C83   1.387       .  A
C75          C92   1.421       .  A
C76          C91   1.424       .  A
C76          C84   1.388       .  A
C77         N918   1.353   1_455  A
C77          C89   1.419       .  A
C77          C85   1.388       .  A
C78          C92   1.418       .  A
C78          C86   1.387       .  A
C79         N920   1.353   1_455  A
C79          C87   1.386       .  A
C79          C90   1.418       .  A
C80          C88   1.388       .  A
C80          C91   1.421       .  A
C81          C82   1.372       .  A
C81          H93   1.080       .  S
C82          H94   1.082       .  S
C83          C84   1.372       .  A
C83          H95   1.082       .  S
C84          H96   1.080       .  S
C85         C934   1.367   1_455  A
C85          H97   1.082       .  S
C86         C933   1.367       .  A
C86          H98   1.082       .  S
C87         C936   1.366   1_455  A
C87          H99   1.082       .  S
C88         C935   1.366       .  A
C88         H100   1.082       .  S
C89         C113   1.487       .  S
C90         C367   1.485       .  S
C91         C359   1.490       .  S
C92         C105   1.486       .  S
C103        N104   1.357       .  A
C103        N108   1.359       .  A
N104        C105   1.358       .  A
C105        N106   1.358       .  A
N106        C107   1.359       .  A
C107        N108   1.359       .  A
C107        C408   1.465       .  S
C109        N110   1.359       .  A
C109        N114   1.358       .  A
N110        C111   1.358       .  A
C111        N112   1.358       .  A
C111        C410   1.463       .  S
N112        C113   1.358       .  A
C113        N114   1.358       .  A
N115        C119   1.356       .  A
N115        C544   1.356       .  A
N115        H147   1.034       .  S
N116        C124   1.353       .  A
N116        C971   1.353       .  A
N117        C121   1.356       .  A
N117        C546   1.356       .  A
N117        H148   1.033       .  S
N118        C126   1.353       .  A
N118        C973   1.353       .  A
C119        C127   1.389       .  A
C119        C135   1.423       .  A
C120        N539   1.356       .  A
C120        C136   1.421       .  A
C120        C128   1.387   1_545  A
C121        C129   1.387       .  A
C121        C138   1.421       .  A
C122        N541   1.356   1_545  A
C122        C137   1.422       .  A
C122        C130   1.389       .  A
C123        N964   1.353   1_455  A
C123        C135   1.420       .  A
C123        C131   1.388       .  A
C124        C138   1.419       .  A
C124        C132   1.387       .  A
C125        N966   1.353   1_455  A
C125        C133   1.387       .  A
C125        C136   1.419       .  A
C126        C134   1.388       .  A
C126        C137   1.420       .  A
C127        C552   1.371       .  A
C127        H139   1.080       .  S
C128        C551   1.371       .  A
C128        H140   1.082       .  S
C129        C554   1.372       .  A
C129        H141   1.082       .  S
C130        C553   1.371       .  A
C130        H142   1.080       .  S
C131        C980   1.367   1_455  A
C131        H143   1.082       .  S
C132        C979   1.367       .  A
C132        H144   1.082       .  S
C133        C982   1.367   1_455  A
C133        H145   1.082       .  S
C134        C981   1.367       .  A
C134        H146   1.082       .  S
C135        C345   1.487       .  S
C136        C149   1.487       .  S
C137        C155   1.487       .  S
C138        C351   1.487       .  S
C149        N154   1.359       .  A
C149        N574   1.358   1_545  A
N150        C151   1.358       .  A
N150        C573   1.358       .  A
C151        N576   1.359       .  A
N152        C153   1.359       .  A
N152        C575   1.359   1_545  A
C153        N154   1.358       .  A
C153        C407   1.467       .  S
C155        N156   1.359       .  A
C155        N584   1.358   1_545  A
N156        C157   1.359       .  A
C157        N158   1.357       .  A
C157        C409   1.462       .  S
N158        C583   1.357   1_545  A
C159        N160   1.358       .  A
C159        N582   1.358       .  A
N160        C579   1.358       .  A
N161        C166   1.356   1_556  A
N161        C165   1.357       .  A
N161        H193   1.034       .  S
N162        C169   1.353       .  A
N162        C170   1.354       .  A
N163        C168   1.357   1_556  A
N163        C167   1.356       .  A
N163        H194   1.033       .  S
N164        C171   1.353       .  A
N164        C172   1.353       .  A
C165        C173   1.389       .  A
C165        C181   1.423       .  A
C166        C182   1.421       .  A
C166        C174   1.387       .  A
C167        C175   1.387       .  A
C167        C184   1.421       .  A
C168        C183   1.423       .  A
C168        C176   1.388       .  A
C169        C181   1.420       .  A
C169        C177   1.388       .  A
C170        C184   1.420       .  A
C170        C178   1.387       .  A
C171        C179   1.386       .  A
C171        C182   1.419       .  A
C172        C180   1.388       .  A
C172        C183   1.421       .  A
C173        C174   1.371   1_556  A
C173        H185   1.080       .  S
C174        H186   1.082       .  S
C175        C176   1.372   1_556  A
C175        H187   1.082       .  S
C176        H188   1.080       .  S
C177        C178   1.367       .  A
C177        H189   1.082       .  S
C178        H190   1.082       .  S
C179        C180   1.367       .  A
C179        H191   1.082       .  S
C180        H192   1.082       .  S
C181        C197   1.487       .  S
C182        C335   1.488       .  S
C183        C339   1.488       .  S
C184        C201   1.487       .  S
C195        N196   1.357       .  A
C195        N200   1.358       .  A
N196        C197   1.357       .  A
C197        N198   1.359       .  A
N198        C199   1.359       .  A
C199        N200   1.358       .  A
C199        C423   1.463       .  S
C201        N202   1.359       .  A
C201        N206   1.358       .  A
N202        C203   1.359       .  A
C203        N204   1.359       .  A
C203        C422   1.466       .  S
N204        C205   1.359       .  A
C205        N206   1.357       .  A
N207        C212   1.354       .  A
N207        C211   1.354       .  A
N207        H239   1.027       .  S
N208        C215   1.355       .  A
N208        C216   1.354       .  A
N209        C214   1.355       .  A
N209        C213   1.356       .  A
N209        H240   1.031       .  S
N210        C217   1.353       .  A
N210        C218   1.353       .  A
C211        C227   1.424       .  A
C211        C643   1.388   1_545  A
C212        C228   1.423       .  A
C212        C644   1.388   1_545  A
C213        C221   1.389       .  A
C213        C230   1.425       .  A
C214        C229   1.421       .  A
C214        C222   1.386       .  A
C215        C227   1.423       .  A
C215        C223   1.387       .  A
C216        C230   1.423       .  A
C216        C224   1.388       .  A
C217        C225   1.388       .  A
C217        C228   1.421       .  A
C218        C226   1.387       .  A
C218        C229   1.418       .  A
C219        C220   1.374       .  A
C219        C635   1.387       .  A
C219        H231   1.082       .  S
C220        C636   1.389       .  A
C220        H232   1.081       .  S
C221        C222   1.374       .  A
C221        H233   1.080       .  S
C222        H234   1.082       .  S
C223        C224   1.367       .  A
C223        H235   1.082       .  S
C224        H236   1.082       .  S
C225        C226   1.368       .  A
C225        H237   1.082       .  S
C226        H238   1.082       .  S
C227        C353   1.487       .  S
C228        C331   1.487       .  S
C229        C333   1.485       .  S
C230        C357   1.490       .  S
N241        C245   1.356   1_556  A
N241        C670   1.356       .  A
N241        H273   1.033       .  S
N242        C249   1.354       .  A
N242        C250   1.354       .  A
N243        C247   1.357   1_556  A
N243        C672   1.356       .  A
N243        H274   1.033   1_556  S
N244        C251   1.353       .  A
N244        C252   1.353       .  A
C245        C253   1.387       .  A
C245        C261   1.421       .  A
C246        N665   1.356   1_546  A
C246        C262   1.422       .  A
C246        C254   1.389       .  A
C247        C255   1.389       .  A
C247        C264   1.424       .  A
C248        N667   1.356       .  A
C248        C263   1.423       .  A
C248        C256   1.387   1_545  A
C249        C261   1.420       .  A
C249        C257   1.386       .  A
C250        C264   1.422       .  A
C250        C258   1.388       .  A
C251        C259   1.388       .  A
C251        C262   1.420       .  A
C252        C260   1.387       .  A
C252        C263   1.419       .  A
C253        C678   1.372   1_554  A
C253        H265   1.082       .  S
C254        C677   1.372   1_556  A
C254        H266   1.081       .  S
C255        C680   1.372   1_554  A
C255        H267   1.081       .  S
C256        C679   1.373   1_556  A
C256        H268   1.082       .  S
C257        C258   1.367       .  A
C257        H269   1.082       .  S
C258        H270   1.082       .  S
C259        C260   1.367       .  A
C259        H271   1.082       .  S
C260        H272   1.082       .  S
C261        C323   1.489       .  S
C262        C277   1.486       .  S
C263        C281   1.487       .  S
C264        C327   1.489       .  S
C275        N276   1.358       .  A
C275        N704   1.358       .  A
N276        C701   1.358       .  A
C277        N278   1.358       .  A
C277        N700   1.358   1_545  A
N278        C279   1.358       .  A
C279        N280   1.357       .  A
C279        C424   1.462       .  S
N280        C699   1.358   1_545  A
C281        N282   1.357       .  A
C281        N710   1.359   1_545  A
N282        C283   1.358       .  A
C283        N284   1.360       .  A
C283        C421   1.465       .  S
N284        C709   1.359   1_545  A
C285        N286   1.359       .  A
C285        N708   1.359       .  A
N286        C705   1.359       .  A
N287        C292   1.357       .  A
N287        C291   1.358       .  A
N287        H319   1.038       .  S
N288        C295   1.352       .  A
N288        C296   1.352       .  A
N289        C294   1.358       .  A
N289        C293   1.357       .  A
N289        H320   1.038       .  S
N290        C297   1.352       .  A
N290        C298   1.352       .  A
C291        C299   1.387       .  A
C291        C307   1.420       .  A
C292        C308   1.420       .  A
C292        C300   1.388       .  A
C293        C301   1.387       .  A
C293        C310   1.420       .  A
C294        C309   1.420       .  A
C294        C302   1.387       .  A
C295        C307   1.415       .  A
C295        C303   1.386       .  A
C296        C310   1.416       .  A
C296        C304   1.387       .  A
C297        C308   1.416       .  A
C297        C729   1.387   1_545  A
C298        C306   1.386   1_545  A
C298        C309   1.415       .  A
C299        C300   1.368       .  A
C299        H311   1.082       .  S
C300        H312   1.082       .  S
C301        C302   1.368       .  A
C301        H313   1.082       .  S
C302        H314   1.082       .  S
C303        C304   1.369       .  A
C303        H315   1.081       .  S
C304        H316   1.081       .  S
C305        C721   1.387       .  A
C305        C730   1.368       .  A
C305        H317   1.081       .  S
C306        C729   1.368       .  A
C306        H742   1.081       .  S
C307        C363   1.487       .  S
C308        C349   1.486       .  S
C309        C321   1.487       .  S
C310        C343   1.487       .  S
H318        C730   1.081       .  S
C321        N322   1.357       .  A
C321        N750   1.360   1_545  A
N322        C747   1.358   1_545  A
C323        N324   1.359       .  A
C323        N746   1.358       .  A
N324        C325   1.359       .  A
C325        N326   1.359       .  A
C325        C379   1.467       .  S
N326        C745   1.359       .  A
C327        N328   1.360       .  A
C327        N756   1.356       .  A
N328        C329   1.361       .  A
C329        N330   1.360       .  A
C329        C382   1.469       .  S
N330        C755   1.359       .  A
C331        N332   1.357       .  A
C331        N754   1.358   1_545  A
N332        C751   1.357   1_545  A
C333        N334   1.359       .  A
C333        N338   1.358       .  A
N334        C335   1.359       .  A
C335        N336   1.359       .  A
N336        C337   1.359       .  A
C337        N338   1.359       .  A
C337        C380   1.465       .  S
C339        N340   1.360       .  A
C339        N344   1.358       .  A
N340        C341   1.360       .  A
C341        N342   1.358       .  A
C341        C381   1.467       .  S
N342        C343   1.359       .  A
C343        N344   1.357       .  A
C345        N346   1.359       .  A
C345        N774   1.358       .  A
N346        C347   1.359       .  A
C347        N348   1.358       .  A
C347        C393   1.465       .  S
N348        C773   1.359       .  A
C349        N350   1.357       .  A
C349        N772   1.359   1_545  A
N350        C769   1.358   1_545  A
C351        N356   1.358       .  A
C351        N776   1.358       .  A
N352        C353   1.358       .  A
N352        C775   1.358   1_545  A
C353        N778   1.360   1_545  A
N354        C355   1.359       .  A
N354        C777   1.359       .  A
C355        N356   1.358       .  A
C355        C395   1.465       .  S
C357        N358   1.357       .  A
C357        N362   1.359       .  A
N358        C359   1.357       .  A
C359        N360   1.360       .  A
N360        C361   1.360       .  A
C361        N362   1.360       .  A
C361        C394   1.468       .  S
C363        N364   1.359       .  A
C363        N368   1.357       .  A
N364        C365   1.359       .  A
C365        N366   1.359       .  A
C365        C396   1.467       .  S
N366        C367   1.359       .  A
C367        N368   1.357       .  A
O369        C379   1.264       .  A
O369       V1225   1.901       .  S
O370        C380   1.264       .  A
O370        V377   1.900       .  S
O371        C381   1.265       .  A
O371       V1225   1.903       .  S
O372        C382   1.265       .  A
O372        V377   1.903       .  S
O373        C382   1.264       .  A
O373        V378   1.902       .  S
O374        C381   1.264       .  A
O374       V1226   1.901       .  S
O375        C380   1.264       .  A
O375        V378   1.901       .  S
O376        C379   1.264       .  A
O376       V1226   1.901       .  S
V377       O1217   1.901       .  S
V377       O1219   1.903       .  S
V377        V378   2.089       .  T
V378       O1222   1.901       .  S
V378       O1224   1.901       .  S
O383        C393   1.264       .  A
O383        V391   1.900       .  S
O384        C394   1.264       .  A
O384        V391   1.901       .  S
O385        C395   1.264       .  A
O385        V391   1.902       .  S
O386        C396   1.264       .  A
O386        V391   1.902       .  S
O387        C396   1.264       .  A
O387        V392   1.900       .  S
O388        C395   1.263       .  A
O388        V392   1.900       .  S
O389        C394   1.265       .  A
O389        V392   1.902       .  S
O390        C393   1.264       .  A
O390        V392   1.902       .  S
V391        V392   2.089       .  T
O397        C407   1.265       .  A
O397        V405   1.902       .  S
O398        C408   1.264       .  A
O398        V405   1.901       .  S
O399        C409   1.263       .  A
O399        V405   1.898       .  S
O400        C410   1.263       .  A
O400        V405   1.897       .  S
O401        C410   1.264       .  A
O401        V406   1.901       .  S
O402        C409   1.264       .  A
O402        V406   1.899       .  S
O403        C408   1.264       .  A
O403        V406   1.900       .  S
O404        C407   1.264       .  A
O404        V406   1.900       .  S
V405        V406   2.089       .  T
O411        C421   1.264       .  A
O411        V419   1.900       .  S
O412        C422   1.264       .  A
O412       V1267   1.902       .  S
O413        C423   1.263       .  A
O413        V419   1.898       .  S
O414        C424   1.263       .  A
O414       V1267   1.897       .  S
O415        C424   1.264       .  A
O415       V1268   1.900       .  S
O416        C423   1.264       .  A
O416        V420   1.900       .  S
O417        C422   1.264       .  A
O417       V1268   1.899       .  S
O418        C421   1.263       .  A
O418        V420   1.900       .  S
V419       O1260   1.901       .  S
V419       O1262   1.897       .  S
V419        V420   2.089       .  T
V420       O1263   1.900       .  S
V420       O1265   1.899       .  S
N425        C430   1.357       .  A
N425        C429   1.355       .  A
N425        H457   1.034       .  S
N426        C433   1.353       .  A
N426        C434   1.353       .  A
N427        C432   1.355       .  A
N427        C431   1.356       .  A
N427        H458   1.034       .  S
N428        C435   1.353       .  A
N428        C436   1.353       .  A
C429        C437   1.388   1_565  A
C429        C445   1.421       .  A
C430        C446   1.422       .  A
C430        C438   1.388   1_565  A
C431        C439   1.388       .  A
C431        C448   1.421       .  A
C432        C447   1.421       .  A
C432        C440   1.387       .  A
C433        C445   1.418       .  A
C433        C441   1.387       .  A
C434        C448   1.419       .  A
C434        C442   1.388       .  A
C435        C443   1.387       .  A
C435        C446   1.419       .  A
C436        C444   1.387       .  A
C436        C447   1.418       .  A
C437        C438   1.372       .  A
C439        C440   1.371       .  A
C439        H451   1.081       .  S
C440        H452   1.082       .  S
C441        C442   1.367       .  A
C441        H453   1.082       .  S
C442        H454   1.082       .  S
C443        C444   1.367       .  A
C443        H455   1.082       .  S
C444        H456   1.082       .  S
C445        C583   1.484       .  S
C446        C709   1.488       .  S
C447        C619   1.485       .  S
C448        C527   1.486       .  S
N459        C464   1.358       .  A
N459        C463   1.357       .  A
N459        H491   1.038       .  S
N460        C467   1.353       .  A
N460        C468   1.353       .  A
N461        C466   1.357       .  A
N461        C465   1.357       .  A
N461        H492   1.038       .  S
N462        C469   1.353       .  A
N462        C470   1.352       .  A
C463        C471   1.388       .  A
C463        C479   1.420       .  A
C464        C480   1.420       .  A
C464        C472   1.387       .  A
C465        C473   1.387       .  A
C465        C482   1.419       .  A
C466        C481   1.419       .  A
C466        C474   1.388       .  A
C467        C479   1.417       .  A
C467        C475   1.388       .  A
C468        C482   1.416       .  A
C468        C476   1.386       .  A
C469        C477   1.386   1_565  A
C469        C480   1.416       .  A
C470        C478   1.387   1_565  A
C470        C481   1.417       .  A
C471        C472   1.368       .  A
C471        H483   1.082       .  S
C472        H484   1.082       .  S
C473        C474   1.368       .  A
C473        H485   1.082       .  S
C474        H486   1.082       .  S
C475        C476   1.368       .  A
C475        H487   1.081       .  S
C476        H488   1.081       .  S
C477        C478   1.368       .  A
C479        C533   1.488       .  S
C480        C575   1.488       .  S
C481        C699   1.486       .  S
C482        C629   1.486       .  S
N493        C498   1.355       .  A
N493        C497   1.356       .  A
N493        H525   1.035       .  S
N494       C1349   1.353       .  A
N494        C502   1.353       .  A
N495        C500   1.357       .  A
N495        C499   1.355       .  A
N495        H526   1.034       .  S
N496       C1351   1.354       .  A
N496        C504   1.354       .  A
C497        C505   1.389       .  A
C497        C513   1.422       .  A
C498        C514   1.419       .  A
C498        C506   1.386       .  A
C499        C507   1.387       .  A
C499        C516   1.421       .  A
C500        C515   1.423       .  A
C500        C508   1.388       .  A
C501       N1342   1.353   1_455  A
C501        C513   1.419       .  A
C501        C509   1.388       .  A
C502        C516   1.418       .  A
C502        C510   1.387       .  A
C503       N1344   1.354   1_455  A
C503        C511   1.386       .  A
C503        C514   1.418       .  A
C504        C512   1.388       .  A
C504        C515   1.421       .  A
C505        C506   1.371       .  A
C505        H517   1.080       .  S
C506        H518   1.082       .  S
C507        C508   1.372       .  A
C507        H519   1.082       .  S
C508        H520   1.080       .  S
C509       C1358   1.366   1_455  A
C509        H521   1.082       .  S
C510       C1357   1.366       .  A
C510        H522   1.082       .  S
C511       C1360   1.366   1_455  A
C511        H523   1.082       .  S
C512       C1359   1.366       .  A
C512        H524   1.082       .  S
C513        C537   1.487       .  S
C514        C791   1.486       .  S
C515        C783   1.489       .  S
C516        C529   1.485       .  S
C527        N528   1.357       .  A
C527        N532   1.359       .  A
N528        C529   1.357       .  A
C529        N530   1.358       .  A
N530        C531   1.358       .  A
C531        N532   1.359       .  A
C531        C832   1.465       .  S
C533        N534   1.359       .  A
C533        N538   1.358       .  A
N534        C535   1.358       .  A
C535        N536   1.358       .  A
C535        C834   1.464       .  S
N536        C537   1.358       .  A
C537        N538   1.359       .  A
N539        C543   1.357   1_545  A
N539        H571   1.034       .  S
N540       C1395   1.353       .  A
N540        C548   1.353       .  A
N541        C545   1.355       .  A
N541        H572   1.034       .  S
N542       C1397   1.353       .  A
N542        C550   1.353       .  A
C543        C551   1.389       .  A
C543        C559   1.423       .  A
C544        C560   1.421       .  A
C544        C552   1.387       .  A
C545        C553   1.387   1_565  A
C545        C562   1.421       .  A
C546        C561   1.423       .  A
C546        C554   1.388       .  A
C547       N1388   1.353   1_455  A
C547        C559   1.420       .  A
C547        C555   1.388       .  A
C548        C562   1.419       .  A
C548        C556   1.387       .  A
C549       N1390   1.353   1_455  A
C549        C557   1.387       .  A
C549        C560   1.419       .  A
C550        C558   1.388       .  A
C550        C561   1.420       .  A
C551        H563   1.080       .  S
C552        H564   1.082       .  S
C553        H565   1.082       .  S
C554        H566   1.080       .  S
C555       C1404   1.367   1_455  A
C555        H567   1.082       .  S
C556       C1403   1.367       .  A
C556        H568   1.082       .  S
C557       C1406   1.367   1_455  A
C557        H569   1.082       .  S
C558       C1405   1.367       .  A
C558        H570   1.082       .  S
C559        C769   1.487       .  S
C560        C573   1.486       .  S
C561        C579   1.487       .  S
C562        C775   1.485       .  S
C573        N578   1.359       .  A
N574        C575   1.358       .  A
N576        C577   1.359       .  A
C577        N578   1.358       .  A
C577        C831   1.466       .  S
C579        N580   1.359       .  A
N580        C581   1.359       .  A
C581        N582   1.357       .  A
C581        C833   1.463       .  S
C583        N584   1.358       .  A
N585        C590   1.356   1_556  A
N585        C589   1.357       .  A
N585        H617   1.035       .  S
N586        C593   1.353       .  A
N586        C594   1.354       .  A
N587        C592   1.356   1_556  A
N587        C591   1.355       .  A
N587        H618   1.033       .  S
N588        C595   1.353       .  A
N588        C596   1.353       .  A
C589        C597   1.389       .  A
C589        C605   1.423       .  A
C590        C606   1.421       .  A
C590        C598   1.387       .  A
C591        C599   1.387       .  A
C591        C608   1.421       .  A
C592        C607   1.423       .  A
C592        C600   1.388       .  A
C593        C605   1.420       .  A
C593        C601   1.388       .  A
C594        C608   1.420       .  A
C594        C602   1.387       .  A
C595        C603   1.386       .  A
C595        C606   1.419       .  A
C596        C604   1.388       .  A
C596        C607   1.421       .  A
C597        C598   1.371   1_556  A
C597        H609   1.080       .  S
C598        H610   1.082       .  S
C599        C600   1.372   1_556  A
C599        H611   1.082       .  S
C600        H612   1.081       .  S
C601        C602   1.367       .  A
C601        H613   1.082       .  S
C602        H614   1.082       .  S
C603        C604   1.367       .  A
C603        H615   1.082       .  S
C604        H616   1.082       .  S
C605        C621   1.488       .  S
C606        C759   1.488       .  S
C607        C763   1.487       .  S
C608        C625   1.486       .  S
C619        N620   1.358       .  A
C619        N624   1.358       .  A
N620        C621   1.357       .  A
C621        N622   1.359       .  A
N622        C623   1.359       .  A
C623        N624   1.358       .  A
C623        C847   1.464       .  S
C625        N626   1.359       .  A
C625        N630   1.358       .  A
N626        C627   1.359       .  A
C627        N628   1.359       .  A
C627        C846   1.465       .  S
N628        C629   1.359       .  A
C629        N630   1.357       .  A
N631        C636   1.355       .  A
N631        C635   1.355       .  A
N631        H663   1.030       .  S
N632        C639   1.354       .  A
N632        C640   1.353       .  A
N633        C638   1.356       .  A
N633        C637   1.356       .  A
N633        H664   1.032       .  S
N634        C641   1.353       .  A
N634        C642   1.353       .  A
C635        C651   1.422       .  A
C636        C652   1.424       .  A
C637        C645   1.389       .  A
C637        C654   1.425       .  A
C638        C653   1.422       .  A
C638        C646   1.387       .  A
C639        C651   1.420       .  A
C639        C647   1.386       .  A
C640        C654   1.423       .  A
C640        C648   1.389       .  A
C641        C649   1.389       .  A
C641        C652   1.422       .  A
C642        C650   1.386       .  A
C642        C653   1.418       .  A
C643        C644   1.374       .  A
C643        H655   1.081       .  S
C644        H656   1.081       .  S
C645        C646   1.374       .  A
C645        H657   1.080       .  S
C646        H658   1.082       .  S
C647        C648   1.367       .  A
C647        H659   1.082       .  S
C648        H660   1.082       .  S
C649        C650   1.367       .  A
C649        H661   1.082       .  S
C650        H662   1.082       .  S
C651        C777   1.487       .  S
C652        C755   1.487       .  S
C653        C757   1.486       .  S
C654        C781   1.488       .  S
N665        C669   1.355       .  A
N665        H697   1.033   1_554  S
N666        C673   1.355       .  A
N666        C674   1.354       .  A
N667        C671   1.357   1_546  A
N667        H698   1.034   1_556  S
N668        C675   1.353       .  A
N668        C676   1.353       .  A
C669        C677   1.387   1_565  A
C669        C685   1.421       .  A
C670        C686   1.423       .  A
C670        C678   1.389       .  A
C671        C679   1.389       .  A
C671        C688   1.424       .  A
C672        C687   1.422       .  A
C672        C680   1.387       .  A
C673        C685   1.421       .  A
C673        C681   1.386       .  A
C674        C688   1.423       .  A
C674        C682   1.388       .  A
C675        C683   1.388       .  A
C675        C686   1.420       .  A
C676        C684   1.387       .  A
C676        C687   1.419       .  A
C677        H689   1.082       .  S
C678        H690   1.081       .  S
C679        H691   1.080       .  S
C680        H692   1.082       .  S
C681        C682   1.367       .  A
C681        H693   1.082       .  S
C682        H694   1.082       .  S
C683        C684   1.367       .  A
C683        H695   1.082       .  S
C684        H696   1.082       .  S
C685        C747   1.489       .  S
C686        C701   1.486       .  S
C687        C705   1.487       .  S
C688        C751   1.490       .  S
C699        N700   1.358       .  A
C701        N702   1.358       .  A
N702        C703   1.358       .  A
C703        N704   1.357       .  A
C703        C848   1.463       .  S
C705        N706   1.357       .  A
N706        C707   1.358       .  A
C707        N708   1.359       .  A
C707        C845   1.464       .  S
C709        N710   1.359       .  A
N711        C716   1.357       .  A
N711        C715   1.358       .  A
N711        H743   1.038       .  S
N712        C719   1.353       .  A
N712        C720   1.352       .  A
N713        C718   1.358       .  A
N713        C717   1.357       .  A
N713        H744   1.038       .  S
N714        C721   1.352       .  A
N714        C722   1.352       .  A
C715        C723   1.387       .  A
C715        C731   1.420       .  A
C716        C732   1.420       .  A
C716        C724   1.388       .  A
C717        C725   1.388       .  A
C717        C734   1.420       .  A
C718        C733   1.420       .  A
C718        C726   1.387       .  A
C719        C731   1.415       .  A
C719        C727   1.386       .  A
C720        C734   1.417       .  A
C720        C728   1.387       .  A
C721        C732   1.416       .  A
C722        C730   1.386       .  A
C722        C733   1.415       .  A
C723        C724   1.368       .  A
C723        H735   1.082       .  S
C724        H736   1.082       .  S
C725        C726   1.368       .  A
C725        H737   1.082       .  S
C726        H738   1.082       .  S
C727        C728   1.369       .  A
C727        H739   1.081       .  S
C728        H740   1.081       .  S
C729        H741   1.081       .  S
C731        C787   1.487       .  S
C732        C773   1.486       .  S
C733        C745   1.487       .  S
C734        C767   1.487       .  S
C745        N746   1.358       .  A
C747        N748   1.360       .  A
N748        C749   1.359       .  A
C749        N750   1.359       .  A
C749        C803   1.467       .  S
C751        N752   1.360       .  A
N752        C753   1.361       .  A
C753        N754   1.359       .  A
C753        C806   1.468       .  S
C755        N756   1.356       .  A
C757        N758   1.359       .  A
C757        N762   1.358       .  A
N758        C759   1.359       .  A
C759        N760   1.359       .  A
N760        C761   1.359       .  A
C761        N762   1.359       .  A
C761        C804   1.465       .  S
C763        N764   1.359       .  A
C763        N768   1.358       .  A
N764        C765   1.359       .  A
C765        N766   1.358       .  A
C765        C805   1.466       .  S
N766        C767   1.359       .  A
C767        N768   1.357       .  A
C769        N770   1.359       .  A
N770        C771   1.359       .  A
C771        N772   1.358       .  A
C771        C817   1.466       .  S
C773        N774   1.357       .  A
C775        N780   1.358       .  A
N776        C777   1.359       .  A
N778        C779   1.360       .  A
C779        N780   1.358       .  A
C779        C819   1.466       .  S
C781        N782   1.357       .  A
C781        N786   1.359       .  A
N782        C783   1.357       .  A
C783        N784   1.360       .  A
N784        C785   1.361       .  A
C785        N786   1.360       .  A
C785        C818   1.468       .  S
C787        N788   1.359       .  A
C787        N792   1.357       .  A
N788        C789   1.359       .  A
C789        N790   1.359       .  A
C789        C820   1.467       .  S
N790        C791   1.360       .  A
C791        N792   1.357       .  A
O793        C803   1.264       .  A
O793       V1649   1.901       .  S
O794        C804   1.264       .  A
O794        V801   1.899       .  S
O795        C805   1.264       .  A
O795       V1649   1.902       .  S
O796        C806   1.265       .  A
O796        V801   1.902       .  S
O797        C806   1.264       .  A
O797        V802   1.902       .  S
O798        C805   1.264       .  A
O798       V1650   1.901       .  S
O799        C804   1.264       .  A
O799        V802   1.901       .  S
O800        C803   1.264       .  A
O800       V1650   1.902       .  S
V801       O1641   1.901       .  S
V801       O1643   1.902       .  S
V801        V802   2.089       .  T
V802       O1646   1.901       .  S
V802       O1648   1.902       .  S
O807        C817   1.264       .  A
O807        V815   1.900       .  S
O808        C818   1.264       .  A
O808        V815   1.902       .  S
O809        C819   1.264       .  A
O809        V815   1.902       .  S
O810        C820   1.264       .  A
O810        V815   1.903       .  S
O811        C820   1.264       .  A
O811        V816   1.900       .  S
O812        C819   1.264       .  A
O812        V816   1.901       .  S
O813        C818   1.265       .  A
O813        V816   1.903       .  S
O814        C817   1.264       .  A
O814        V816   1.902       .  S
V815        V816   2.089       .  T
O821        C831   1.264       .  A
O821        V829   1.902       .  S
O822        C832   1.264       .  A
O822        V829   1.901       .  S
O823        C833   1.263       .  A
O823        V829   1.898       .  S
O824        C834   1.263       .  A
O824        V829   1.898       .  S
O825        C834   1.264       .  A
O825        V830   1.901       .  S
O826        C833   1.264       .  A
O826        V830   1.900       .  S
O827        C832   1.263       .  A
O827        V830   1.900       .  S
O828        C831   1.264       .  A
O828        V830   1.900       .  S
V829        V830   2.089       .  T
O835        C845   1.264       .  A
O835        V843   1.899       .  S
O836        C846   1.264       .  A
O836       V1691   1.901       .  S
O837        C847   1.263       .  A
O837        V843   1.898       .  S
O838        C848   1.263       .  A
O838       V1691   1.897       .  S
O839        C848   1.264       .  A
O839       V1692   1.900       .  S
O840        C847   1.264       .  A
O840        V844   1.901       .  S
O841        C846   1.264       .  A
O841       V1692   1.899       .  S
O842        C845   1.263       .  A
O842        V844   1.900       .  S
V843       O1684   1.901       .  S
V843       O1686   1.897       .  S
V843        V844   2.089       .  T
V844       O1687   1.900       .  S
V844       O1689   1.899       .  S
N849        C854   1.357       .  A
N849        C853   1.355       .  A
N849        H881   1.034       .  S
N850        C857   1.353       .  A
N850        C858   1.353       .  A
N851        C856   1.355       .  A
N851        C855   1.356       .  A
N851        H882   1.034       .  S
N852        C859   1.353       .  A
N852        C860   1.353       .  A
C853        C861   1.388       .  A
C853        C869   1.421       .  A
C854        C870   1.422       .  A
C854        C862   1.388       .  A
C855        C863   1.388       .  A
C855        C872   1.421       .  A
C856        C871   1.420       .  A
C856        C864   1.388       .  A
C857        C869   1.418       .  A
C857        C865   1.387       .  A
C858        C872   1.419       .  A
C858        C866   1.388       .  A
C859        C867   1.387       .  A
C859        C870   1.419       .  A
C860        C868   1.387       .  A
C860        C871   1.418       .  A
C861        C862   1.372       .  A
C861       H1297   1.082       .  S
C862       H1298   1.081       .  S
C863        C864   1.371       .  A
C863        H875   1.081       .  S
C864        H876   1.082       .  S
C865        C866   1.367       .  A
C865        H877   1.082       .  S
C866        H878   1.082       .  S
C867        C868   1.367       .  A
C867        H879   1.082       .  S
C868        H880   1.082       .  S
C869       C1007   1.484       .  S
C870       C1133   1.488       .  S
C871       C1043   1.484       .  S
C872        C951   1.486       .  S
H873       C1285   1.082       .  S
H874       C1286   1.081       .  S
N883        C888   1.358       .  A
N883        C887   1.357       .  A
N883        H915   1.038       .  S
N884        C891   1.352       .  A
N884        C892   1.353       .  A
N885        C890   1.357       .  A
N885        C889   1.357       .  A
N885        H916   1.038       .  S
N886        C893   1.353       .  A
N886        C894   1.353       .  A
C887        C895   1.388       .  A
C887        C903   1.420       .  A
C888        C904   1.419       .  A
C888        C896   1.387       .  A
C889        C897   1.387       .  A
C889        C906   1.419       .  A
C890        C905   1.419       .  A
C890        C898   1.388       .  A
C891        C903   1.417       .  A
C891        C899   1.387       .  A
C892        C906   1.416       .  A
C892        C900   1.386       .  A
C893        C901   1.386       .  A
C893        C904   1.416       .  A
C894        C902   1.388       .  A
C894        C905   1.417       .  A
C895        C896   1.368       .  A
C895        H907   1.082       .  S
C896        H908   1.082       .  S
C897        C898   1.368       .  A
C897        H909   1.082       .  S
C898        H910   1.082       .  S
C899        C900   1.368       .  A
C899        H911   1.081       .  S
C900        H912   1.081       .  S
C901        C902   1.368       .  A
C901       H1337   1.081       .  S
C902       H1338   1.081       .  S
C903        C957   1.487       .  S
C904        C999   1.488       .  S
C905       C1123   1.486       .  S
C906       C1053   1.486       .  S
H913       C1325   1.081       .  S
H914       C1326   1.081       .  S
N917        C922   1.355       .  A
N917        C921   1.356       .  A
N917        H949   1.035       .  S
N918        C926   1.353       .  A
N919        C924   1.357       .  A
N919        C923   1.355       .  A
N919        H950   1.034       .  S
N920        C928   1.354       .  A
C921        C929   1.389       .  A
C921        C937   1.422       .  A
C922        C938   1.419       .  A
C922        C930   1.386       .  A
C923        C931   1.387       .  A
C923        C940   1.421       .  A
C924        C939   1.424       .  A
C924        C932   1.388       .  A
C925        C937   1.419       .  A
C925        C933   1.388       .  A
C926        C940   1.418       .  A
C926        C934   1.387       .  A
C927        C935   1.386       .  A
C927        C938   1.418       .  A
C928        C936   1.388       .  A
C928        C939   1.421       .  A
C929        C930   1.372       .  A
C929        H941   1.080       .  S
C930        H942   1.082       .  S
C931        C932   1.372       .  A
C931        H943   1.082       .  S
C932        H944   1.080       .  S
C933        H945   1.082       .  S
C934        H946   1.082       .  S
C935        H947   1.082       .  S
C936        H948   1.082       .  S
C937        C961   1.487       .  S
C938       C1215   1.485       .  S
C939       C1207   1.490       .  S
C940        C953   1.485       .  S
C951        N952   1.357       .  A
C951        N956   1.359       .  A
N952        C953   1.358       .  A
C953        N954   1.358       .  A
N954        C955   1.359       .  A
C955        N956   1.359       .  A
C955       C1256   1.466       .  S
C957        N958   1.359       .  A
C957        N962   1.358       .  A
N958        C959   1.358       .  A
C959        N960   1.358       .  A
C959       C1258   1.463       .  S
N960        C961   1.358       .  A
C961        N962   1.358       .  A
N963       C1392   1.356       .  A
N963        C967   1.356       .  A
N963        H995   1.034       .  S
N964        C972   1.353       .  A
N965       C1394   1.356       .  A
N965        C969   1.356       .  A
N965        H996   1.033       .  S
N966        C974   1.353       .  A
C967        C975   1.389       .  A
C967        C983   1.423       .  A
C968       N1387   1.356       .  A
C968        C984   1.421       .  A
C968        C976   1.387   1_545  A
C969        C977   1.387       .  A
C969        C986   1.421       .  A
C970       N1389   1.356   1_545  A
C970        C985   1.422       .  A
C970        C978   1.389       .  A
C971        C983   1.420       .  A
C971        C979   1.388       .  A
C972        C986   1.419       .  A
C972        C980   1.387       .  A
C973        C981   1.387       .  A
C973        C984   1.419       .  A
C974        C982   1.388       .  A
C974        C985   1.420       .  A
C975       C1400   1.371       .  A
C975        H987   1.080       .  S
C976       C1399   1.371       .  A
C976        H988   1.082       .  S
C977       C1402   1.372       .  A
C977        H989   1.082       .  S
C978       C1401   1.371       .  A
C978        H990   1.080       .  S
C979        H991   1.082       .  S
C980        H992   1.082       .  S
C981        H993   1.082       .  S
C982        H994   1.082       .  S
C983       C1193   1.487       .  S
C984        C997   1.487       .  S
C985       C1003   1.487       .  S
C986       C1199   1.487       .  S
C997       N1422   1.358   1_545  A
C997       N1002   1.359       .  A
N998       C1421   1.358       .  A
N998        C999   1.358       .  A
C999       N1424   1.359       .  A
N1000      C1423   1.359   1_545  A
N1000      C1001   1.359       .  A
C1001      N1002   1.359       .  A
C1001      C1255   1.467       .  S
C1003      N1004   1.359       .  A
C1003      N1432   1.358   1_545  A
N1004      C1005   1.359       .  A
C1005      N1006   1.357       .  A
C1005      C1257   1.462       .  S
N1006      C1431   1.357   1_545  A
C1007      N1430   1.358       .  A
C1007      N1008   1.358       .  A
N1008      C1427   1.358       .  A
N1009      C1014   1.356   1_556  A
N1009      C1013   1.357       .  A
N1009      H1041   1.034       .  S
N1010      C1017   1.353       .  A
N1010      C1018   1.354       .  A
N1011      C1016   1.357   1_556  A
N1011      C1015   1.356       .  A
N1011      H1042   1.033       .  S
N1012      C1019   1.353       .  A
N1012      C1020   1.353       .  A
C1013      C1021   1.389       .  A
C1013      C1029   1.423       .  A
C1014      C1030   1.421       .  A
C1014      C1022   1.387       .  A
C1015      C1023   1.387       .  A
C1015      C1032   1.421       .  A
C1016      C1031   1.423       .  A
C1016      C1024   1.388       .  A
C1017      C1029   1.420       .  A
C1017      C1025   1.388       .  A
C1018      C1032   1.420       .  A
C1018      C1026   1.387       .  A
C1019      C1027   1.386       .  A
C1019      C1030   1.419       .  A
C1020      C1028   1.388       .  A
C1020      C1031   1.421       .  A
C1021      C1022   1.371   1_556  A
C1021      H1033   1.080       .  S
C1022      H1034   1.082       .  S
C1023      C1024   1.372   1_556  A
C1023      H1035   1.082       .  S
C1024      H1036   1.080       .  S
C1025      C1026   1.367       .  A
C1025      H1037   1.082       .  S
C1026      H1038   1.082       .  S
C1027      C1028   1.367       .  A
C1027      H1039   1.082       .  S
C1028      H1040   1.082       .  S
C1029      C1045   1.487       .  S
C1030      C1183   1.488       .  S
C1031      C1187   1.488       .  S
C1032      C1049   1.487       .  S
C1043      N1044   1.357       .  A
C1043      N1048   1.358       .  A
N1044      C1045   1.357       .  A
C1045      N1046   1.359       .  A
N1046      C1047   1.359       .  A
C1047      N1048   1.358       .  A
C1047      C1271   1.463       .  S
C1049      N1050   1.359       .  A
C1049      N1054   1.358       .  A
N1050      C1051   1.359       .  A
C1051      N1052   1.359       .  A
C1051      C1270   1.465       .  S
N1052      C1053   1.359       .  A
C1053      N1054   1.357       .  A
N1055      C1060   1.354       .  A
N1055      C1059   1.354       .  A
N1055      H1087   1.027       .  S
N1056      C1063   1.355       .  A
N1056      C1064   1.354       .  A
N1057      C1062   1.355       .  A
N1057      C1061   1.356       .  A
N1057      H1088   1.031       .  S
N1058      C1065   1.353       .  A
N1058      C1066   1.353       .  A
C1059      C1491   1.388   1_545  A
C1059      C1075   1.424       .  A
C1060      C1076   1.424       .  A
C1060      C1492   1.388   1_545  A
C1061      C1069   1.389       .  A
C1061      C1078   1.425       .  A
C1062      C1077   1.421       .  A
C1062      C1070   1.386       .  A
C1063      C1075   1.423       .  A
C1063      C1071   1.387       .  A
C1064      C1078   1.423       .  A
C1064      C1072   1.388       .  A
C1065      C1073   1.388       .  A
C1065      C1076   1.421       .  A
C1066      C1074   1.387       .  A
C1066      C1077   1.418       .  A
C1067      C1483   1.387       .  A
C1067      C1068   1.373       .  A
C1067      H1079   1.082       .  S
C1068      C1484   1.389       .  A
C1068      H1080   1.081       .  S
C1069      C1070   1.374       .  A
C1069      H1081   1.080       .  S
C1070      H1082   1.082       .  S
C1071      C1072   1.367       .  A
C1071      H1083   1.082       .  S
C1072      H1084   1.082       .  S
C1073      C1074   1.368       .  A
C1073      H1085   1.082       .  S
C1074      H1086   1.082       .  S
C1075      C1201   1.487       .  S
C1076      C1179   1.487       .  S
C1077      C1181   1.485       .  S
C1078      C1205   1.490       .  S
N1089      C1518   1.356       .  A
N1089      C1093   1.356   1_556  A
N1089      H1121   1.033       .  S
N1090      C1097   1.354       .  A
N1090      C1098   1.354       .  A
N1091      C1520   1.356       .  A
N1091      C1095   1.356   1_556  A
N1091      H1122   1.033   1_556  S
N1092      C1099   1.353       .  A
N1092      C1100   1.353       .  A
C1093      C1101   1.387       .  A
C1093      C1109   1.421       .  A
C1094      N1513   1.356   1_546  A
C1094      C1110   1.422       .  A
C1094      C1102   1.388       .  A
C1095      C1103   1.389       .  A
C1095      C1112   1.424       .  A
C1096      N1515   1.356       .  A
C1096      C1111   1.423       .  A
C1096      C1104   1.387   1_545  A
C1097      C1109   1.420       .  A
C1097      C1105   1.386       .  A
C1098      C1112   1.422       .  A
C1098      C1106   1.388       .  A
C1099      C1107   1.388       .  A
C1099      C1110   1.420       .  A
C1100      C1108   1.387       .  A
C1100      C1111   1.419       .  A
C1101      C1526   1.372   1_554  A
C1101      H1113   1.082       .  S
C1102      C1525   1.372   1_556  A
C1102      H1114   1.081       .  S
C1103      C1528   1.372   1_554  A
C1103      H1115   1.081       .  S
C1104      C1527   1.373   1_556  A
C1104      H1116   1.082       .  S
C1105      C1106   1.367       .  A
C1105      H1117   1.082       .  S
C1106      H1118   1.082       .  S
C1107      C1108   1.367       .  A
C1107      H1119   1.082       .  S
C1108      H1120   1.082       .  S
C1109      C1171   1.489       .  S
C1110      C1125   1.486       .  S
C1111      C1129   1.487       .  S
C1112      C1175   1.489       .  S
C1123      N1124   1.358       .  A
C1123      N1552   1.358       .  A
N1124      C1549   1.358       .  A
C1125      N1548   1.358   1_545  A
C1125      N1126   1.358       .  A
N1126      C1127   1.358       .  A
C1127      N1128   1.357       .  A
C1127      C1272   1.462       .  S
N1128      C1547   1.358   1_545  A
C1129      N1130   1.357       .  A
C1129      N1558   1.359   1_545  A
N1130      C1131   1.358       .  A
C1131      N1132   1.360       .  A
C1131      C1269   1.465       .  S
N1132      C1557   1.359   1_545  A
C1133      N1556   1.359       .  A
C1133      N1134   1.358       .  A
N1134      C1553   1.358       .  A
N1135      C1140   1.357       .  A
N1135      C1139   1.358       .  A
N1135      H1167   1.038       .  S
N1136      C1143   1.352       .  A
N1136      C1144   1.352       .  A
N1137      C1142   1.358       .  A
N1137      C1141   1.357       .  A
N1137      H1168   1.038       .  S
N1138      C1145   1.352       .  A
N1138      C1146   1.352       .  A
C1139      C1147   1.387       .  A
C1139      C1155   1.420       .  A
C1140      C1156   1.420       .  A
C1140      C1148   1.388       .  A
C1141      C1149   1.387       .  A
C1141      C1158   1.420       .  A
C1142      C1157   1.420       .  A
C1142      C1150   1.387       .  A
C1143      C1155   1.415       .  A
C1143      C1151   1.386       .  A
C1144      C1158   1.416       .  A
C1144      C1152   1.387       .  A
C1145      C1577   1.387   1_545  A
C1145      C1156   1.416       .  A
C1146      C1154   1.386   1_545  A
C1146      C1157   1.415       .  A
C1147      C1148   1.368       .  A
C1147      H1159   1.082       .  S
C1148      H1160   1.082       .  S
C1149      C1150   1.368       .  A
C1149      H1161   1.082       .  S
C1150      H1162   1.082       .  S
C1151      C1152   1.369       .  A
C1151      H1163   1.081       .  S
C1152      H1164   1.081       .  S
C1153      C1569   1.387       .  A
C1153      C1578   1.368       .  A
C1153      H1165   1.081       .  S
C1154      C1577   1.368       .  A
C1154      H1590   1.081       .  S
C1155      C1211   1.487       .  S
C1156      C1197   1.486       .  S
C1157      C1169   1.487       .  S
C1158      C1191   1.487       .  S
H1166      C1578   1.081       .  S
C1169      N1170   1.357       .  A
C1169      N1598   1.360   1_545  A
N1170      C1595   1.358   1_545  A
C1171      N1594   1.358       .  A
C1171      N1172   1.359       .  A
N1172      C1173   1.359       .  A
C1173      N1174   1.359       .  A
C1173      C1227   1.467       .  S
N1174      C1593   1.359       .  A
C1175      N1176   1.360       .  A
C1175      N1604   1.356       .  A
N1176      C1177   1.361       .  A
C1177      N1178   1.360       .  A
C1177      C1230   1.469       .  S
N1178      C1603   1.359       .  A
C1179      N1602   1.358   1_545  A
C1179      N1180   1.357       .  A
N1180      C1599   1.357   1_545  A
C1181      N1182   1.359       .  A
C1181      N1186   1.358       .  A
N1182      C1183   1.359       .  A
C1183      N1184   1.359       .  A
N1184      C1185   1.359       .  A
C1185      N1186   1.359       .  A
C1185      C1228   1.465       .  S
C1187      N1188   1.360       .  A
C1187      N1192   1.358       .  A
N1188      C1189   1.360       .  A
C1189      N1190   1.358       .  A
C1189      C1229   1.467       .  S
N1190      C1191   1.359       .  A
C1191      N1192   1.357       .  A
C1193      N1194   1.359       .  A
C1193      N1622   1.358       .  A
N1194      C1195   1.359       .  A
C1195      N1196   1.358       .  A
C1195      C1241   1.466       .  S
N1196      C1621   1.359       .  A
C1197      N1620   1.359   1_545  A
C1197      N1198   1.357       .  A
N1198      C1617   1.358   1_545  A
C1199      N1624   1.359       .  A
C1199      N1204   1.358       .  A
N1200      C1623   1.358   1_545  A
N1200      C1201   1.358       .  A
C1201      N1626   1.360   1_545  A
N1202      C1625   1.359       .  A
N1202      C1203   1.359       .  A
C1203      N1204   1.358       .  A
C1203      C1243   1.465       .  S
C1205      N1206   1.357       .  A
C1205      N1210   1.359       .  A
N1206      C1207   1.357       .  A
C1207      N1208   1.360       .  A
N1208      C1209   1.360       .  A
C1209      N1210   1.360       .  A
C1209      C1242   1.468       .  S
C1211      N1212   1.359       .  A
C1211      N1216   1.357       .  A
N1212      C1213   1.359       .  A
C1213      N1214   1.359       .  A
C1213      C1244   1.467       .  S
N1214      C1215   1.359       .  A
C1215      N1216   1.357       .  A
O1217      C1227   1.264       .  A
O1218      C1228   1.264       .  A
O1218      V1225   1.900   1_655  S
O1219      C1229   1.265       .  A
O1220      C1230   1.265       .  A
O1220      V1225   1.903   1_655  S
O1221      C1230   1.264       .  A
O1221      V1226   1.902   1_655  S
O1222      C1229   1.264       .  A
O1223      C1228   1.264       .  A
O1223      V1226   1.901   1_655  S
O1224      C1227   1.264       .  A
V1225      V1226   2.089       .  T
O1231      C1241   1.264       .  A
O1231      V1239   1.900       .  S
O1232      C1242   1.264       .  A
O1232      V1239   1.901       .  S
O1233      C1243   1.264       .  A
O1233      V1239   1.902       .  S
O1234      C1244   1.264       .  A
O1234      V1239   1.902       .  S
O1235      C1244   1.264       .  A
O1235      V1240   1.900       .  S
O1236      C1243   1.263       .  A
O1236      V1240   1.900       .  S
O1237      C1242   1.265       .  A
O1237      V1240   1.902       .  S
O1238      C1241   1.264       .  A
O1238      V1240   1.902       .  S
V1239      V1240   2.089       .  T
O1245      C1255   1.265       .  A
O1245      V1253   1.902       .  S
O1246      C1256   1.264       .  A
O1246      V1253   1.901       .  S
O1247      C1257   1.263       .  A
O1247      V1253   1.898       .  S
O1248      C1258   1.263       .  A
O1248      V1253   1.897       .  S
O1249      C1258   1.264       .  A
O1249      V1254   1.901       .  S
O1250      C1257   1.264       .  A
O1250      V1254   1.899       .  S
O1251      C1256   1.264       .  A
O1251      V1254   1.900       .  S
O1252      C1255   1.264       .  A
O1252      V1254   1.900       .  S
V1253      V1254   2.089       .  T
O1259      C1269   1.264       .  A
O1259      V1267   1.900   1_655  S
O1260      C1270   1.264       .  A
O1261      C1271   1.263       .  A
O1261      V1267   1.898   1_655  S
O1262      C1272   1.263       .  A
O1263      C1272   1.264       .  A
O1264      C1271   1.264       .  A
O1264      V1268   1.900   1_655  S
O1265      C1270   1.264       .  A
O1266      C1269   1.263       .  A
O1266      V1268   1.900   1_655  S
V1267      V1268   2.089       .  T
N1273      C1278   1.357       .  A
N1273      C1277   1.355       .  A
N1273      H1305   1.034       .  S
N1274      C1281   1.353       .  A
N1274      C1282   1.353       .  A
N1275      C1280   1.355       .  A
N1275      C1279   1.356       .  A
N1275      H1306   1.034       .  S
N1276      C1283   1.353       .  A
N1276      C1284   1.353       .  A
C1277      C1285   1.388   1_565  A
C1277      C1293   1.421       .  A
C1278      C1294   1.422       .  A
C1278      C1286   1.388   1_565  A
C1279      C1287   1.388       .  A
C1279      C1296   1.421       .  A
C1280      C1295   1.421       .  A
C1280      C1288   1.387       .  A
C1281      C1293   1.418       .  A
C1281      C1289   1.387       .  A
C1282      C1296   1.419       .  A
C1282      C1290   1.388       .  A
C1283      C1291   1.387       .  A
C1283      C1294   1.419       .  A
C1284      C1292   1.387       .  A
C1284      C1295   1.418       .  A
C1285      C1286   1.372       .  A
C1287      C1288   1.371       .  A
C1287      H1299   1.081       .  S
C1288      H1300   1.082       .  S
C1289      C1290   1.367       .  A
C1289      H1301   1.082       .  S
C1290      H1302   1.082       .  S
C1291      C1292   1.367       .  A
C1291      H1303   1.082       .  S
C1292      H1304   1.082       .  S
C1293      C1431   1.484       .  S
C1294      C1557   1.488       .  S
C1295      C1467   1.485       .  S
C1296      C1375   1.486       .  S
N1307      C1312   1.358       .  A
N1307      C1311   1.357       .  A
N1307      H1339   1.038       .  S
N1308      C1315   1.353       .  A
N1308      C1316   1.353       .  A
N1309      C1314   1.357       .  A
N1309      C1313   1.357       .  A
N1309      H1340   1.038       .  S
N1310      C1317   1.353       .  A
N1310      C1318   1.352       .  A
C1311      C1319   1.388       .  A
C1311      C1327   1.420       .  A
C1312      C1328   1.420       .  A
C1312      C1320   1.387       .  A
C1313      C1321   1.387       .  A
C1313      C1330   1.419       .  A
C1314      C1329   1.419       .  A
C1314      C1322   1.388       .  A
C1315      C1327   1.417       .  A
C1315      C1323   1.388       .  A
C1316      C1330   1.416       .  A
C1316      C1324   1.386       .  A
C1317      C1325   1.386   1_565  A
C1317      C1328   1.416       .  A
C1318      C1326   1.387   1_565  A
C1318      C1329   1.417       .  A
C1319      C1320   1.368       .  A
C1319      H1331   1.082       .  S
C1320      H1332   1.082       .  S
C1321      C1322   1.368       .  A
C1321      H1333   1.082       .  S
C1322      H1334   1.082       .  S
C1323      C1324   1.368       .  A
C1323      H1335   1.081       .  S
C1324      H1336   1.081       .  S
C1325      C1326   1.368       .  A
C1327      C1381   1.487       .  S
C1328      C1423   1.488       .  S
C1329      C1547   1.485       .  S
C1330      C1477   1.486       .  S
N1341      C1346   1.355       .  A
N1341      C1345   1.356       .  A
N1341      H1373   1.035       .  S
N1342      C1350   1.353       .  A
N1343      C1348   1.357       .  A
N1343      C1347   1.355       .  A
N1343      H1374   1.034       .  S
N1344      C1352   1.354       .  A
C1345      C1353   1.389       .  A
C1345      C1361   1.422       .  A
C1346      C1362   1.419       .  A
C1346      C1354   1.386       .  A
C1347      C1355   1.387       .  A
C1347      C1364   1.421       .  A
C1348      C1363   1.423       .  A
C1348      C1356   1.388       .  A
C1349      C1361   1.419       .  A
C1349      C1357   1.388       .  A
C1350      C1364   1.418       .  A
C1350      C1358   1.387       .  A
C1351      C1359   1.386       .  A
C1351      C1362   1.418       .  A
C1352      C1360   1.388       .  A
C1352      C1363   1.421       .  A
C1353      C1354   1.371       .  A
C1353      H1365   1.080       .  S
C1354      H1366   1.082       .  S
C1355      C1356   1.372       .  A
C1355      H1367   1.082       .  S
C1356      H1368   1.080       .  S
C1357      H1369   1.082       .  S
C1358      H1370   1.082       .  S
C1359      H1371   1.082       .  S
C1360      H1372   1.082       .  S
C1361      C1385   1.487       .  S
C1362      C1639   1.486       .  S
C1363      C1631   1.489       .  S
C1364      C1377   1.485       .  S
C1375      N1376   1.357       .  A
C1375      N1380   1.359       .  A
N1376      C1377   1.357       .  A
C1377      N1378   1.358       .  A
N1378      C1379   1.358       .  A
C1379      N1380   1.359       .  A
C1379      C1680   1.465       .  S
C1381      N1382   1.359       .  A
C1381      N1386   1.358       .  A
N1382      C1383   1.358       .  A
C1383      N1384   1.358       .  A
C1383      C1682   1.464       .  S
N1384      C1385   1.358       .  A
C1385      N1386   1.359       .  A
N1387      C1391   1.356   1_545  A
N1387      H1419   1.034       .  S
N1388      C1396   1.353       .  A
N1389      C1393   1.355       .  A
N1389      H1420   1.034       .  S
N1390      C1398   1.353       .  A
C1391      C1399   1.389       .  A
C1391      C1407   1.423       .  A
C1392      C1408   1.421       .  A
C1392      C1400   1.387       .  A
C1393      C1401   1.387   1_565  A
C1393      C1410   1.421       .  A
C1394      C1409   1.423       .  A
C1394      C1402   1.388       .  A
C1395      C1407   1.420       .  A
C1395      C1403   1.388       .  A
C1396      C1410   1.418       .  A
C1396      C1404   1.387       .  A
C1397      C1405   1.387       .  A
C1397      C1408   1.419       .  A
C1398      C1406   1.388       .  A
C1398      C1409   1.420       .  A
C1399      H1411   1.080       .  S
C1400      H1412   1.082       .  S
C1401      H1413   1.082       .  S
C1402      H1414   1.080       .  S
C1403      H1415   1.082       .  S
C1404      H1416   1.082       .  S
C1405      H1417   1.082       .  S
C1406      H1418   1.082       .  S
C1407      C1617   1.487       .  S
C1408      C1421   1.486       .  S
C1409      C1427   1.487       .  S
C1410      C1623   1.486       .  S
C1421      N1426   1.359       .  A
N1422      C1423   1.358       .  A
N1424      C1425   1.359       .  A
C1425      N1426   1.358       .  A
C1425      C1679   1.466       .  S
C1427      N1428   1.359       .  A
N1428      C1429   1.359       .  A
C1429      N1430   1.357       .  A
C1429      C1681   1.463       .  S
C1431      N1432   1.358       .  A
N1433      C1438   1.356   1_556  A
N1433      C1437   1.357       .  A
N1433      H1465   1.035       .  S
N1434      C1441   1.353       .  A
N1434      C1442   1.354       .  A
N1435      C1440   1.356   1_556  A
N1435      C1439   1.355       .  A
N1435      H1466   1.033       .  S
N1436      C1443   1.353       .  A
N1436      C1444   1.353       .  A
C1437      C1445   1.389       .  A
C1437      C1453   1.423       .  A
C1438      C1454   1.421       .  A
C1438      C1446   1.387       .  A
C1439      C1447   1.387       .  A
C1439      C1456   1.421       .  A
C1440      C1455   1.423       .  A
C1440      C1448   1.388       .  A
C1441      C1453   1.421       .  A
C1441      C1449   1.388       .  A
C1442      C1456   1.420       .  A
C1442      C1450   1.387       .  A
C1443      C1451   1.386       .  A
C1443      C1454   1.419       .  A
C1444      C1452   1.388       .  A
C1444      C1455   1.421       .  A
C1445      C1446   1.371   1_556  A
C1445      H1457   1.080       .  S
C1446      H1458   1.082       .  S
C1447      C1448   1.372   1_556  A
C1447      H1459   1.082       .  S
C1448      H1460   1.081       .  S
C1449      C1450   1.367       .  A
C1449      H1461   1.082       .  S
C1450      H1462   1.082       .  S
C1451      C1452   1.367       .  A
C1451      H1463   1.082       .  S
C1452      H1464   1.082       .  S
C1453      C1469   1.488       .  S
C1454      C1607   1.488       .  S
C1455      C1611   1.487       .  S
C1456      C1473   1.486       .  S
C1467      N1468   1.358       .  A
C1467      N1472   1.358       .  A
N1468      C1469   1.357       .  A
C1469      N1470   1.359       .  A
N1470      C1471   1.359       .  A
C1471      N1472   1.358       .  A
C1471      C1695   1.464       .  S
C1473      N1474   1.359       .  A
C1473      N1478   1.358       .  A
N1474      C1475   1.359       .  A
C1475      N1476   1.359       .  A
C1475      C1694   1.465       .  S
N1476      C1477   1.359       .  A
C1477      N1478   1.357       .  A
N1479      C1484   1.355       .  A
N1479      C1483   1.355       .  A
N1479      H1511   1.030       .  S
N1480      C1487   1.354       .  A
N1480      C1488   1.353       .  A
N1481      C1486   1.356       .  A
N1481      C1485   1.356       .  A
N1481      H1512   1.032       .  S
N1482      C1489   1.353       .  A
N1482      C1490   1.353       .  A
C1483      C1499   1.422       .  A
C1484      C1500   1.424       .  A
C1485      C1493   1.389       .  A
C1485      C1502   1.425       .  A
C1486      C1501   1.422       .  A
C1486      C1494   1.387       .  A
C1487      C1499   1.420       .  A
C1487      C1495   1.386       .  A
C1488      C1502   1.423       .  A
C1488      C1496   1.389       .  A
C1489      C1497   1.389       .  A
C1489      C1500   1.422       .  A
C1490      C1498   1.386       .  A
C1490      C1501   1.418       .  A
C1491      C1492   1.374       .  A
C1491      H1503   1.081       .  S
C1492      H1504   1.081       .  S
C1493      C1494   1.374       .  A
C1493      H1505   1.080       .  S
C1494      H1506   1.082       .  S
C1495      C1496   1.367       .  A
C1495      H1507   1.082       .  S
C1496      H1508   1.082       .  S
C1497      C1498   1.367       .  A
C1497      H1509   1.082       .  S
C1498      H1510   1.082       .  S
C1499      C1625   1.487       .  S
C1500      C1603   1.487       .  S
C1501      C1605   1.486       .  S
C1502      C1629   1.488       .  S
N1513      C1517   1.355       .  A
N1513      H1545   1.033   1_554  S
N1514      C1521   1.355       .  A
N1514      C1522   1.354       .  A
N1515      C1519   1.357   1_546  A
N1515      H1546   1.034   1_556  S
N1516      C1523   1.353       .  A
N1516      C1524   1.353       .  A
C1517      C1525   1.387   1_565  A
C1517      C1533   1.421       .  A
C1518      C1534   1.423       .  A
C1518      C1526   1.389       .  A
C1519      C1527   1.389       .  A
C1519      C1536   1.424       .  A
C1520      C1535   1.422       .  A
C1520      C1528   1.387       .  A
C1521      C1533   1.421       .  A
C1521      C1529   1.386       .  A
C1522      C1536   1.423       .  A
C1522      C1530   1.388       .  A
C1523      C1531   1.388       .  A
C1523      C1534   1.420       .  A
C1524      C1532   1.387       .  A
C1524      C1535   1.419       .  A
C1525      H1537   1.082       .  S
C1526      H1538   1.081       .  S
C1527      H1539   1.080       .  S
C1528      H1540   1.082       .  S
C1529      C1530   1.367       .  A
C1529      H1541   1.082       .  S
C1530      H1542   1.082       .  S
C1531      C1532   1.367       .  A
C1531      H1543   1.082       .  S
C1532      H1544   1.082       .  S
C1533      C1595   1.489       .  S
C1534      C1549   1.486       .  S
C1535      C1553   1.487       .  S
C1536      C1599   1.490       .  S
C1547      N1548   1.358       .  A
C1549      N1550   1.359       .  A
N1550      C1551   1.358       .  A
C1551      N1552   1.357       .  A
C1551      C1696   1.463       .  S
C1553      N1554   1.357       .  A
N1554      C1555   1.358       .  A
C1555      N1556   1.359       .  A
C1555      C1693   1.464       .  S
C1557      N1558   1.359       .  A
N1559      C1564   1.357       .  A
N1559      C1563   1.358       .  A
N1559      H1591   1.038       .  S
N1560      C1567   1.353       .  A
N1560      C1568   1.352       .  A
N1561      C1566   1.358       .  A
N1561      C1565   1.357       .  A
N1561      H1592   1.038       .  S
N1562      C1569   1.352       .  A
N1562      C1570   1.352       .  A
C1563      C1571   1.387       .  A
C1563      C1579   1.420       .  A
C1564      C1580   1.420       .  A
C1564      C1572   1.388       .  A
C1565      C1573   1.388       .  A
C1565      C1582   1.420       .  A
C1566      C1581   1.420       .  A
C1566      C1574   1.387       .  A
C1567      C1579   1.415       .  A
C1567      C1575   1.386       .  A
C1568      C1582   1.417       .  A
C1568      C1576   1.387       .  A
C1569      C1580   1.416       .  A
C1570      C1578   1.386       .  A
C1570      C1581   1.415       .  A
C1571      C1572   1.368       .  A
C1571      H1583   1.082       .  S
C1572      H1584   1.082       .  S
C1573      C1574   1.368       .  A
C1573      H1585   1.082       .  S
C1574      H1586   1.082       .  S
C1575      C1576   1.369       .  A
C1575      H1587   1.081       .  S
C1576      H1588   1.081       .  S
C1577      H1589   1.081       .  S
C1579      C1635   1.487       .  S
C1580      C1621   1.486       .  S
C1581      C1593   1.487       .  S
C1582      C1615   1.487       .  S
C1593      N1594   1.358       .  A
C1595      N1596   1.360       .  A
N1596      C1597   1.359       .  A
C1597      N1598   1.359       .  A
C1597      C1651   1.467       .  S
C1599      N1600   1.360       .  A
N1600      C1601   1.361       .  A
C1601      N1602   1.359       .  A
C1601      C1654   1.468       .  S
C1603      N1604   1.356       .  A
C1605      N1606   1.359       .  A
C1605      N1610   1.358       .  A
N1606      C1607   1.359       .  A
C1607      N1608   1.359       .  A
N1608      C1609   1.359       .  A
C1609      N1610   1.359       .  A
C1609      C1652   1.465       .  S
C1611      N1612   1.359       .  A
C1611      N1616   1.358       .  A
N1612      C1613   1.359       .  A
C1613      N1614   1.358       .  A
C1613      C1653   1.467       .  S
N1614      C1615   1.359       .  A
C1615      N1616   1.357       .  A
C1617      N1618   1.359       .  A
N1618      C1619   1.359       .  A
C1619      N1620   1.358       .  A
C1619      C1665   1.466       .  S
C1621      N1622   1.357       .  A
C1623      N1628   1.358       .  A
N1624      C1625   1.359       .  A
N1626      C1627   1.360       .  A
C1627      N1628   1.358       .  A
C1627      C1667   1.466       .  S
C1629      N1630   1.357       .  A
C1629      N1634   1.359       .  A
N1630      C1631   1.357       .  A
C1631      N1632   1.360       .  A
N1632      C1633   1.361       .  A
C1633      N1634   1.360       .  A
C1633      C1666   1.468       .  S
C1635      N1636   1.359       .  A
C1635      N1640   1.357       .  A
N1636      C1637   1.359       .  A
C1637      N1638   1.359       .  A
C1637      C1668   1.467       .  S
N1638      C1639   1.360       .  A
C1639      N1640   1.357       .  A
O1641      C1651   1.264       .  A
O1642      C1652   1.264       .  A
O1642      V1649   1.899   1_655  S
O1643      C1653   1.264       .  A
O1644      C1654   1.264       .  A
O1644      V1649   1.902   1_655  S
O1645      C1654   1.264       .  A
O1645      V1650   1.902   1_655  S
O1646      C1653   1.264       .  A
O1647      C1652   1.264       .  A
O1647      V1650   1.901   1_655  S
O1648      C1651   1.264       .  A
V1649      V1650   2.089       .  T
O1655      C1665   1.264       .  A
O1655      V1663   1.900       .  S
O1656      C1666   1.264       .  A
O1656      V1663   1.902       .  S
O1657      C1667   1.264       .  A
O1657      V1663   1.902       .  S
O1658      C1668   1.264       .  A
O1658      V1663   1.903       .  S
O1659      C1668   1.264       .  A
O1659      V1664   1.900       .  S
O1660      C1667   1.264       .  A
O1660      V1664   1.901       .  S
O1661      C1666   1.265       .  A
O1661      V1664   1.903       .  S
O1662      C1665   1.264       .  A
O1662      V1664   1.902       .  S
V1663      V1664   2.089       .  T
O1669      C1679   1.265       .  A
O1669      V1677   1.902       .  S
O1670      C1680   1.264       .  A
O1670      V1677   1.901       .  S
O1671      C1681   1.263       .  A
O1671      V1677   1.898       .  S
O1672      C1682   1.263       .  A
O1672      V1677   1.898       .  S
O1673      C1682   1.264       .  A
O1673      V1678   1.901       .  S
O1674      C1681   1.264       .  A
O1674      V1678   1.900       .  S
O1675      C1680   1.263       .  A
O1675      V1678   1.900       .  S
O1676      C1679   1.264       .  A
O1676      V1678   1.900       .  S
V1677      V1678   2.089       .  T
O1683      C1693   1.264       .  A
O1683      V1691   1.899   1_655  S
O1684      C1694   1.264       .  A
O1685      C1695   1.263       .  A
O1685      V1691   1.898   1_655  S
O1686      C1696   1.263       .  A
O1687      C1696   1.264       .  A
O1688      C1695   1.264       .  A
O1688      V1692   1.901   1_655  S
O1689      C1694   1.263       .  A
O1690      C1693   1.263       .  A
O1690      V1692   1.900   1_655  S
V1691      V1692   2.089       .  T
