geometry optimzed in LAMMPS
_audit_creation_date              2020-11-30 
_audit_creation_method            'lammps2cif' 
_symmetry_space_group_name_H-M    'P1' 
_symmetry_Int_Tables_number       1 
_symmetry_cell_setting            triclinic 
loop_ 
_symmetry_equiv_pos_as_xyz 
  x,y,z 
_cell_length_a                    54.11056778 
_cell_length_b                    54.271232392240165 
_cell_length_c                    54.31280618611917 
_cell_angle_alpha                 90.1883149540355 
_cell_angle_beta                  90.12901042518159 
_cell_angle_gamma                 90.07356362844679 
loop_ 
_atom_site_label 
_atom_site_type_symbol 
_atom_site_fract_x 
_atom_site_fract_y 
_atom_site_fract_z 
_atom_site_charge 
O1          O  0.62555918  0.69204508  0.67765940    -0.77700
C2          C  0.69173372  0.69861007  0.62710098     0.83400
O3          O  0.61702585  0.64594495  0.59967705    -0.78800
O4          O  0.69083425  0.61277509  0.61503444    -0.80300
O5          O  0.68314402  0.61972252  0.69587748    -0.80100
O6          O  0.63948784  0.66498145  0.70533290    -0.78700
Zn7        Zn  0.64194340  0.68047380  0.64564767     1.55700
O8          O  0.70984162  0.63342668  0.66769976    -0.80100
Cd9        Cd  0.64972522  0.63532061  0.68367188     1.59700
Cd10       Cd  0.63152975  0.62542281  0.62839670     1.59600
O11         O  0.61929064  0.61187784  0.68730212    -0.80100
O12         O  0.65275776  0.64679092  0.64914244    -1.90600
Cd13       Cd  0.68759295  0.64334925  0.63827565     1.59900
O14         O  0.60317183  0.61081902  0.64952009    -0.80000
O15         O  0.70011358  0.67682451  0.62358642    -0.78700
C16         C  0.61344231  0.66910092  0.59782088     0.83800
C17         C  0.62776343  0.68464827  0.69992628     0.83500
O18         O  0.67116839  0.70240955  0.63791158    -0.77600
C19         C  0.70521701  0.62215916  0.68775055     0.84300
O20         O  0.62007211  0.68394755  0.61494984    -0.77700
C21         C  0.60179572  0.60612483  0.67249751     0.84400
C22         C  0.67572503  0.59546576  0.60949999     0.84800
O23         O  0.65269972  0.59711860  0.61422947    -0.80200
O24         O  0.83440304  0.62152203  0.31844163    -0.77700
C25         C  0.88866235  0.68481493  0.31004611     0.83400
O26         O  0.91586778  0.61145325  0.36130236    -0.78800
O27         O  0.90497244  0.68312672  0.39529650    -0.80300
O28         O  0.82263532  0.67953439  0.39063198    -0.80100
O29         O  0.80978227  0.63505120  0.34838551    -0.78700
Zn30       Zn  0.86853788  0.63555360  0.32881330     1.55700
O31         O  0.85264238  0.70422843  0.37718267    -0.80100
Cd32       Cd  0.83334519  0.64525184  0.37618908     1.59700
Cd33       Cd  0.88775209  0.62527236  0.38291175     1.59600
O34         O  0.82937541  0.61512653  0.39974326    -0.80100
O35         O  0.86719032  0.64692447  0.36248664    -1.90600
Cd36       Cd  0.88034175  0.68088842  0.36570809     1.59900
O37         O  0.86598447  0.59679937  0.39586809    -0.80000
O38         O  0.89325591  0.69327349  0.33161270    -0.78700
C39         C  0.91654409  0.60698271  0.33823381     0.83800
C40         C  0.81279287  0.62417469  0.32778511     0.83500
O41         O  0.87750133  0.66428291  0.30697820    -0.77600
C42         C  0.83209038  0.70103564  0.38814520     0.84300
O43         O  0.89837109  0.61243351  0.32412009    -0.77700
C44         C  0.84330282  0.59628276  0.40224169     0.84400
C45         C  0.90855069  0.66823573  0.41315893     0.84800
O46         O  0.90204536  0.64565432  0.41185086    -0.80200
O47         O  0.89516730  0.40199671  0.17055896    -0.77700
C48         C  0.84142126  0.41436504  0.10747272     0.83400
O49         O  0.81201990  0.36081401  0.17746741    -0.78800
O50         O  0.82515566  0.32816604  0.10366081    -0.80300
O51         O  0.90422362  0.33065969  0.10953987    -0.80100
O52         O  0.91896490  0.37595080  0.14976018    -0.78700
Zn53       Zn  0.86072192  0.39297510  0.15589958     1.55700
O54         O  0.87791996  0.35018720  0.08497496    -0.80100
Cd55       Cd  0.89487431  0.34719629  0.14325738     1.59700
Cd56       Cd  0.83967218  0.33925802  0.16272181     1.59600
O57         O  0.89891621  0.32573980  0.17480498    -0.80100
O58         O  0.86101084  0.36023251  0.14239100    -1.90600
Cd59       Cd  0.84892863  0.35859703  0.10811529     1.59900
O60         O  0.86093779  0.32431301  0.19047317    -0.80000
O61         O  0.83627459  0.39340135  0.09782940    -0.78700
C62         C  0.81226142  0.38358830  0.18330884     0.83800
C63         C  0.91668580  0.39427721  0.16431770     0.83500
O64         O  0.85226241  0.41604433  0.12830657    -0.77600
C65         C  0.89676241  0.33645002  0.08792425     0.84300
O66         O  0.83106576  0.39722392  0.17897141    -0.77700
C67         C  0.88409569  0.32028869  0.19229000     0.84400
C68         C  0.81965837  0.31047203  0.11824272     0.84800
O69         O  0.82445442  0.31181166  0.14120334    -0.80200
C70         C  0.76037775  0.60095722  0.00300744     0.04000
C71         C  0.74423533  0.58776188  0.98724641    -0.12200
C72         C  0.74341982  0.56187280  0.98823734     0.01500
C73         C  0.75888694  0.54941043  0.00446145    -0.10700
C74         C  0.77586358  0.56199706  0.01922776     0.03900
C75         C  0.77628519  0.58790023  0.01894327    -0.10100
H76         H  0.73235138  0.59752608  0.97451957     0.09500
H77         H  0.75831859  0.52941437  0.00495498     0.07100
H78         H  0.78925466  0.59779608  0.03056077     0.06900
C79         C  0.06337205  0.52090830  0.26325297     0.04000
C80         C  0.08941635  0.52155202  0.26277114    -0.12200
C81         C  0.10286525  0.50344972  0.24954746     0.01500
C82         C  0.08960024  0.48488383  0.23662375    -0.10700
C83         C  0.06351183  0.48461210  0.23678484     0.03900
C84         C  0.05083332  0.50270652  0.24998666    -0.10100
H85         H  0.09913777  0.53559580  0.27320176     0.09500
H86         H  0.09948044  0.47079152  0.22649171     0.07100
H87         H  0.03077943  0.50235944  0.25030318     0.06900
O88         O  0.62006268  0.31291824  0.84068156    -0.77700
C89         C  0.68406149  0.30627216  0.89380287     0.83400
O90         O  0.61187788  0.36364311  0.91809162    -0.78800
O91         O  0.68667814  0.39262735  0.90414639    -0.80300
O92         O  0.67977887  0.38302538  0.82264868    -0.80100
O93         O  0.63464447  0.34071710  0.81428895    -0.78700
Zn94       Zn  0.63442696  0.32560504  0.87414907     1.55700
O95         O  0.70567773  0.37008777  0.85189535    -0.80100
Cd96       Cd  0.64569260  0.36999570  0.83530783     1.59700
Cd97       Cd  0.62757991  0.38161311  0.88903925     1.59600
O98         O  0.61640642  0.39435881  0.83006112    -0.80100
O99         O  0.64782646  0.35855495  0.86984640    -1.90600
Cd100      Cd  0.68268243  0.36149667  0.88133215     1.59900
O101        O  0.59958281  0.39513074  0.86743517    -0.80000
O102        O  0.69384414  0.32765355  0.89629296    -0.78700
C103        C  0.60580845  0.34118101  0.92100768     0.83800
C104        C  0.62339135  0.32055454  0.81855223     0.83500
O105        O  0.66271473  0.30325704  0.88414984    -0.77600
C106        C  0.70169263  0.38025821  0.83109356     0.84300
O107        O  0.61080929  0.32488634  0.90456279    -0.77700
C108        C  0.59853095  0.39955922  0.84445724     0.84400
C109        C  0.67214258  0.41089640  0.90770940     0.84800
O110        O  0.64933281  0.40989433  0.90188990    -0.80200
O111        O  0.41318059  0.17150008  0.89299862    -0.77700
C112        C  0.41984436  0.11346275  0.83515254     0.83400
O113        O  0.36162081  0.18463100  0.81743904    -0.78800
O114        O  0.33266337  0.10955220  0.82768316    -0.80300
O115        O  0.34403739  0.11026543  0.90760124    -0.80100
O116        O  0.38789395  0.15289208  0.91945914    -0.78700
Zn117      Zn  0.39956276  0.15952491  0.85987364     1.55700
O118        O  0.35909789  0.08752554  0.87664820    -0.80100
Cd119      Cd  0.35701290  0.14562497  0.89839539     1.59700
Cd120      Cd  0.34334530  0.16752753  0.84577529     1.59600
O121        O  0.33441255  0.17617121  0.90643558    -0.80100
O122        O  0.36687827  0.14621943  0.86337316    -1.90600
Cd123      Cd  0.36496028  0.11275541  0.84882814     1.59900
O124        O  0.33093766  0.19437797  0.86980123    -0.80000
O125        O  0.39845732  0.10406824  0.83118612    -0.78700
C126        C  0.38433755  0.19040822  0.81529112     0.83800
C127        C  0.40741010  0.16525947  0.91495612     0.83500
O128        O  0.42231986  0.13296478  0.84802285    -0.77600
C129        C  0.34861906  0.08931621  0.89759855     0.84300
O130        O  0.40023184  0.18439352  0.83168128    -0.77700
C131        C  0.32846431  0.19471786  0.89315201     0.84400
C132        C  0.31402991  0.12376132  0.82466452     0.84800
O133        O  0.31482563  0.14629865  0.83146978    -0.80200
C134        C  0.49137707  0.23950910  0.06261450     0.04000
C135        C  0.48963787  0.23714122  0.08830482    -0.12200
C136        C  0.50248008  0.25356091  0.10392559     0.01500
C137        C  0.51728501  0.27232285  0.09354634    -0.10700
C138        C  0.51849953  0.27493629  0.06777741     0.03900
C139        C  0.50531082  0.25870223  0.05271334    -0.10100
H140        H  0.47870184  0.22236930  0.09610018     0.09500
H141        H  0.52769592  0.28468751  0.10535028     0.07100
H142        H  0.50649741  0.26060720  0.03285825     0.06900
C143        C  0.52384483  0.26436384  0.67303191     0.04000
C144        C  0.52473407  0.26332899  0.64711219    -0.12200
C145        C  0.50346426  0.25654457  0.63347613     0.01500
C146        C  0.48155892  0.25046124  0.64619713    -0.10700
C147        C  0.48092582  0.25119689  0.67204572     0.03900
C148        C  0.50193295  0.25840098  0.68514391    -0.10100
H149        H  0.54168909  0.26800272  0.63766929     0.09500
H150        H  0.46525098  0.24470355  0.63606619     0.07100
H151        H  0.50139212  0.25880606  0.70512347     0.06900
C152        C  0.60352326  0.00357025  0.75033699     0.04000
C153        C  0.58981797  0.98335233  0.74092631    -0.12200
C154        C  0.56382458  0.98331711  0.74214945     0.01500
C155        C  0.55164519  0.00333782  0.75267697    -0.10700
C156        C  0.56465813  0.02341677  0.76216302     0.03900
C157        C  0.59062760  0.02361802  0.76101281    -0.10100
H158        H  0.59924065  0.96787088  0.73253568     0.09500
H159        H  0.53161137  0.00322030  0.75364056     0.07100
H160        H  0.60069034  0.03913545  0.76865054     0.06900
C161        C  0.94627844  0.98475010  0.27090683     0.04000
C162        C  0.92038739  0.98485360  0.27208007    -0.12200
C163        C  0.90654799  0.00301177  0.25948041     0.01500
C164        C  0.91938447  0.02153177  0.24620524    -0.10700
C165        C  0.94550926  0.02129397  0.24506790     0.03900
C166        C  0.95843567  0.00260681  0.25715065    -0.10100
H167        H  0.91108546  0.97082127  0.28276969     0.09500
H168        H  0.90918621  0.03568295  0.23653413     0.07100
H169        H  0.97846149  0.00211436  0.25610630     0.06900
C170        C  0.27374414  0.33971256  0.99529107     0.04000
C171        C  0.26587551  0.32730464  0.01637323    -0.12200
C172        C  0.25494830  0.33994115  0.03594897     0.01500
C173        C  0.25244468  0.36570952  0.03475213    -0.10700
C174        C  0.26036953  0.37869278  0.01366686     0.03900
C175        C  0.27073237  0.36545160  0.99377075    -0.10100
H176        H  0.26756456  0.30740027  0.01722197     0.09500
H177        H  0.24394194  0.37554034  0.04991381     0.07100
H178        H  0.27682358  0.37512756  0.97745699     0.06900
C179        C  0.26030036  0.90677522  0.00419117     0.04000
C180        C  0.27656444  0.91918236  0.98805901    -0.12200
C181        C  0.27840902  0.94510257  0.98867833     0.01500
C182        C  0.26347368  0.95847354  0.00485814    -0.10700
C183        C  0.24699322  0.94666119  0.02063670     0.03900
C184        C  0.24555772  0.92075714  0.02053005    -0.10100
H185        H  0.28803072  0.90874373  0.97547237     0.09500
H186        H  0.26447288  0.97844950  0.00496192     0.07100
H187        H  0.23287410  0.91155908  0.03288274     0.06900
C188        C  0.34335129  0.97675278  0.25120700     0.04000
C189        C  0.32960304  0.99721968  0.24383084    -0.12200
C190        C  0.34109097  0.01888902  0.23611594     0.01500
C191        C  0.36703900  0.02039903  0.23625028    -0.10700
C192        C  0.38138635  0.99989950  0.24343601     0.03900
C193        C  0.36936362  0.97799452  0.25084216    -0.10100
H194        H  0.30956541  0.99631620  0.24419858     0.09500
H195        H  0.37600694  0.03724066  0.23038906     0.07100
H196        H  0.38013673  0.96223080  0.25665807     0.06900
C197        C  0.01338054  0.25650075  0.90593484     0.04000
C198        C  0.03271838  0.24503317  0.91918215    -0.12200
C199        C  0.03207971  0.24432318  0.94507895     0.01500
C200        C  0.01224375  0.25503559  0.95749475    -0.10700
C201        C  0.99353965  0.26719582  0.94485548     0.03900
C202        C  0.99386287  0.26778573  0.91902684    -0.10100
H203        H  0.04796677  0.23654625  0.90944778     0.09500
H204        H  0.01163966  0.25442140  0.97745797     0.07100
H205        H  0.97922668  0.27721761  0.90922518     0.06900
C206        C  0.98080928  0.26892701  0.34077283     0.04000
C207        C  0.00069789  0.25870496  0.32805810    -0.12200
C208        C  0.02082599  0.24867492  0.34056247     0.01500
C209        C  0.02141393  0.24943839  0.36646830    -0.10700
C210        C  0.00138368  0.25962182  0.37975721     0.03900
C211        C  0.98093925  0.26917707  0.36667311    -0.10100
H212        H  0.00030609  0.25816207  0.30807790     0.09500
H213        H  0.03705001  0.24167708  0.37620989     0.07100
H214        H  0.96542269  0.27699877  0.37653623     0.06900
O215        O  0.11147436  0.09962060  0.17153379    -0.77700
C216        C  0.16813256  0.09005633  0.11029004     0.83400
O217        O  0.19201934  0.14302190  0.18535767    -0.78800
O218        O  0.18565701  0.17603811  0.11311294    -0.80300
O219        O  0.10445559  0.17226278  0.11241109    -0.80100
O220        O  0.08762081  0.12667940  0.15184755    -0.78700
Zn221      Zn  0.14608221  0.10967933  0.15813943     1.55700
O222        O  0.13460170  0.15577356  0.08966379    -0.80100
Cd223      Cd  0.11153804  0.15585461  0.14662561     1.59700
Cd224      Cd  0.16487398  0.16452951  0.16983520     1.59600
O225        O  0.10519553  0.17787611  0.17787078    -0.80100
O226        O  0.14571146  0.14332697  0.14733099    -1.90600
Cd227      Cd  0.16138674  0.14581130  0.11456995     1.59900
O228        O  0.14182646  0.17896540  0.19648285    -0.80000
O229        O  0.17550390  0.11145581  0.10364858    -0.78700
C230        C  0.19348156  0.11975641  0.18828670     0.83800
C231        C  0.09001575  0.10760334  0.16531033     0.83500
O232        O  0.15415237  0.08772192  0.12903136    -0.77600
C233        C  0.11485583  0.16841725  0.09157664     0.84300
O234        O  0.17614339  0.10523952  0.18114584    -0.77700
C235        C  0.11867997  0.18339269  0.19650090     0.84400
C236        C  0.18868291  0.19408135  0.12807509     0.84800
O237        O  0.18095654  0.19297402  0.15022050    -0.80200
O238        O  0.40351403  0.82547536  0.62504857    -0.77700
C239        C  0.41631524  0.88798994  0.68030191     0.83400
O240        O  0.35825939  0.82072944  0.70542609    -0.78800
O241        O  0.32955197  0.89603214  0.68871724    -0.80300
O242        O  0.33445725  0.88918515  0.61327211    -0.80100
O243        O  0.37767961  0.84473239  0.59938663    -0.78700
Zn244      Zn  0.39404636  0.84128915  0.65849990     1.55700
O245        O  0.35633444  0.91283391  0.63875451    -0.80100
Cd246      Cd  0.34912504  0.85465925  0.62245012     1.59700
Cd247      Cd  0.33816160  0.83588440  0.67672375     1.59600
O248        O  0.32497223  0.82526845  0.61779621    -0.80100
O249        O  0.36145835  0.85500945  0.65647942    -1.90600
Cd250      Cd  0.36137242  0.88936460  0.66814578     1.59900
O251        O  0.32322889  0.80800643  0.65491882    -0.80000
O252        O  0.39516322  0.89746217  0.68490105    -0.78700
C253        C  0.38104154  0.81465727  0.70656142     0.83800
C254        C  0.39587848  0.83027465  0.60319454     0.83500
O255        O  0.41836358  0.86827241  0.66755669    -0.77600
C256        C  0.34131957  0.91051670  0.62077056     0.84300
O257        O  0.39579880  0.81878701  0.68863535    -0.77700
C258        C  0.31900316  0.80735118  0.63177705     0.84400
C259        C  0.31046878  0.88286219  0.69315877     0.84800
O260        O  0.31057440  0.85958944  0.68935502    -0.80200
O261        O  0.12179788  0.81588748  0.32981978    -0.77700
C262        C  0.18589314  0.80877421  0.38229564     0.83400
O263        O  0.11598426  0.85983502  0.41054230    -0.78800
O264        O  0.18666255  0.89402117  0.39613803    -0.80300
O265        O  0.17857138  0.88844637  0.31396226    -0.80100
O266        O  0.13417269  0.84489883  0.30361509    -0.78700
Zn267      Zn  0.13695584  0.82741055  0.36245874     1.55700
O268        O  0.20492771  0.87409689  0.34229919    -0.80100
Cd269      Cd  0.14481164  0.87370087  0.32623000     1.59700
Cd270      Cd  0.12786737  0.88166181  0.38182895     1.59600
O271        O  0.11413908  0.89707317  0.32391349    -0.80100
O272        O  0.14834165  0.86103990  0.36020709    -1.90600
Cd273      Cd  0.18295306  0.86420184  0.37173163     1.59900
O274        O  0.09810874  0.89457306  0.36168453    -0.80000
O275        O  0.19482645  0.83036842  0.38573310    -0.78700
C276        C  0.11118871  0.83681904  0.41111354     0.83800
C277        C  0.12356140  0.82435004  0.30792390     0.83500
O278        O  0.16539716  0.80543401  0.37116764    -0.77600
C279        C  0.20059244  0.88512103  0.32202859     0.84300
O280        O  0.11484727  0.82289859  0.39246159    -0.77700
C281        C  0.09637100  0.90055533  0.33903622     0.84400
C282        C  0.17187783  0.91174141  0.40102977     0.84800
O283        O  0.14895877  0.91069219  0.39545138    -0.80200
C284        C  0.01630613  0.74914792  0.59889373     0.04000
C285        C  0.99645541  0.73846052  0.58570411    -0.12200
C286        C  0.99617101  0.73897865  0.55987216     0.01500
C287        C  0.01550205  0.75026729  0.54727882    -0.10700
C288        C  0.03534382  0.76086337  0.55991056     0.03900
C289        C  0.03587416  0.76026939  0.58579033    -0.10100
H290        H  0.98146341  0.72956495  0.59545018     0.09500
H291        H  0.01517747  0.75067598  0.52729789     0.07100
H292        H  0.05113018  0.76875067  0.59561479     0.06900
C293        C  0.25930550  0.09481797  0.51037847     0.04000
C294        C  0.24794226  0.08184315  0.49067871    -0.12200
C295        C  0.24805274  0.05588740  0.49014430     0.01500
C296        C  0.25965234  0.04298427  0.50904615    -0.10700
C297        C  0.27066447  0.05525202  0.52884087     0.03900
C298        C  0.27053692  0.08119980  0.52957172    -0.10100
H299        H  0.23868547  0.09182732  0.47610013     0.09500
H300        H  0.25960269  0.02298501  0.50864058     0.07100
H301        H  0.27928384  0.09067737  0.54486513     0.06900
C302        C  0.26897343  0.66774967  0.52050424     0.04000
C303        C  0.26688087  0.64192538  0.52149324    -0.12200
C304        C  0.25831252  0.62861071  0.50079187     0.01500
C305        C  0.25126359  0.64148065  0.47941442    -0.10700
C306        C  0.25280527  0.66725894  0.47868662     0.03900
C307        C  0.26197931  0.68015247  0.49907269    -0.10100
H308        H  0.27211992  0.63227497  0.53813200     0.09500
H309        H  0.24390102  0.63154684  0.46368088     0.07100
H310        H  0.26286264  0.70011976  0.49857162     0.06900
C311        C  0.99952111  0.75965844  0.12545247     0.04000
C312        C  0.02027512  0.76775694  0.13920971    -0.12200
C313        C  0.01934549  0.76848668  0.16513003     0.01500
C314        C  0.99806123  0.76062203  0.17720965    -0.10700
C315        C  0.97753525  0.75214381  0.16414615     0.03900
C316        C  0.97810270  0.75182900  0.13820679    -0.10100
H317        H  0.03682980  0.77385659  0.12983476     0.09500
H318        H  0.99759491  0.76077595  0.19719202     0.07100
H319        H  0.96219523  0.74511454  0.12805859     0.06900
C320        C  0.12682276  0.00930231  0.75311931     0.04000
C321        C  0.14044117  0.02964439  0.76221815    -0.12200
C322        C  0.16641770  0.02884456  0.76295741     0.01500
C323        C  0.17873451  0.00801491  0.75417405    -0.10700
C324        C  0.16571965  0.98780328  0.74482822     0.03900
C325        C  0.13969246  0.98829454  0.74450682    -0.10100
H326        H  0.13089334  0.04579878  0.76906530     0.09500
H327        H  0.19878277  0.00753529  0.75460282     0.07100
H328        H  0.12956130  0.97261950  0.73729363     0.06900
C329        C  0.75985734  0.12128610  0.00195048     0.04000
C330        C  0.76702308  0.13503591  0.02296508    -0.12200
C331        C  0.76753219  0.16093413  0.02211650     0.01500
C332        C  0.76067880  0.17303096  0.00057078    -0.10700
C333        C  0.75330983  0.15995391  0.97967287     0.03900
C334        C  0.75292325  0.13403323  0.98028137    -0.10100
H335        H  0.77261489  0.12570023  0.03966732     0.09500
H336        H  0.76083475  0.19303120  0.00015565     0.07100
H337        H  0.74691892  0.12390312  0.96412023     0.06900
C338        C  0.52615448  0.74326868  0.84328805     0.04000
C339        C  0.50362597  0.75035549  0.83296836    -0.12200
C340        C  0.48396353  0.75790061  0.84775515     0.01500
C341        C  0.48667680  0.75788633  0.87350245    -0.10700
C342        C  0.50930461  0.75066536  0.88440559     0.03900
C343        C  0.52910991  0.74352121  0.86903926    -0.10100
H344        H  0.50153572  0.75049686  0.81308834     0.09500
H345        H  0.47143818  0.76388747  0.88494461     0.07100
H346        H  0.54655603  0.73787071  0.87703180     0.06900
C347        C  0.50290344  0.75380282  0.41437720     0.04000
C348        C  0.52291679  0.74216963  0.42655081    -0.12200
C349        C  0.52294609  0.73989932  0.45236865     0.01500
C350        C  0.50357155  0.74980527  0.46594862    -0.10700
C351        C  0.48325065  0.76078002  0.45458135     0.03900
C352        C  0.48286199  0.76275137  0.42865689    -0.10100
H353        H  0.53807149  0.73452219  0.41602167     0.09500
H354        H  0.50414196  0.74849198  0.48588485     0.07100
H355        H  0.46724357  0.77142363  0.41970028     0.06900
C356        C  0.76509633  0.88139888  0.51268536     0.04000
C357        C  0.77271505  0.86812256  0.49162277    -0.12200
C358        C  0.77413096  0.84227787  0.49217429     0.01500
C359        C  0.76757942  0.82968923  0.51356100    -0.10700
C360        C  0.75989551  0.84231212  0.53468911     0.03900
C361        C  0.75883184  0.86827443  0.53429081    -0.10100
H362        H  0.77778521  0.87783552  0.47498065     0.09500
H363        H  0.76822490  0.80970513  0.51365063     0.07100
H364        H  0.75280236  0.87816214  0.55055501     0.06900
C365        C  0.41404943  0.50400669  0.75895604     0.04000
C366        C  0.42809771  0.52250235  0.74713004    -0.12200
C367        C  0.45411063  0.52167714  0.74787698     0.01500
C368        C  0.46586692  0.50281040  0.76067793    -0.10700
C369        C  0.45231482  0.48456755  0.77257817     0.03900
C370        C  0.42641713  0.48496829  0.77162543    -0.10100
H371        H  0.41891849  0.53702295  0.73699778     0.09500
H372        H  0.48591533  0.50222690  0.76126912     0.07100
H373        H  0.41597239  0.47074985  0.78094866     0.06900
C374        C  0.84541945  0.51840949  0.74826159     0.04000
C375        C  0.87143587  0.51806286  0.74823163    -0.12200
C376        C  0.88441352  0.49652965  0.75504159     0.01500
C377        C  0.87083223  0.47537414  0.76211518    -0.10700
C378        C  0.84474262  0.47586172  0.76238919     0.03900
C379        C  0.83243404  0.49730480  0.75526384    -0.10100
H380        H  0.88152235  0.53443206  0.74284345     0.09500
H381        H  0.88046997  0.45885828  0.76780256     0.07100
H382        H  0.81238688  0.49768585  0.75548830     0.06900
C383        C  0.75076286  0.40945772  0.49695808     0.04000
C384        C  0.76338865  0.42178146  0.47778535    -0.12200
C385        C  0.76385147  0.44773471  0.47711464     0.01500
C386        C  0.75148731  0.46115502  0.49520320    -0.10700
C387        C  0.73882433  0.44940213  0.51412839     0.03900
C388        C  0.73864761  0.42354464  0.51523852    -0.10100
H389        H  0.77317616  0.41132647  0.46387372     0.09500
H390        H  0.75195101  0.48114952  0.49469860     0.07100
H391        H  0.72886314  0.41445695  0.53004042     0.06900
C392        C  0.66818661  0.52492370  0.26774772     0.04000
C393        C  0.68172093  0.50559087  0.25752776    -0.12200
C394        C  0.67004347  0.48507327  0.24709651     0.01500
C395        C  0.64404891  0.48331836  0.24805992    -0.10700
C396        C  0.62991877  0.50251517  0.25863967     0.03900
C397        C  0.64220413  0.52350068  0.26824094    -0.10100
H398        H  0.70174392  0.50679087  0.25721973     0.09500
H399        H  0.63483806  0.46754115  0.23989900     0.07100
H400        H  0.63163285  0.53860389  0.27593544     0.06900
O401        O  0.14056001  0.35130476  0.69861897    -0.77700
C402        C  0.20526729  0.38869135  0.67855850     0.83400
O403        O  0.10258794  0.39668995  0.63935294    -0.78800
O404        O  0.19084338  0.39627908  0.60723939    -0.80300
O405        O  0.17090606  0.30616695  0.63304553    -0.80100
O406        O  0.12678827  0.31989579  0.67559800    -0.78700
Zn407      Zn  0.14991108  0.37799346  0.67480379     1.55700
O408        O  0.19933678  0.33130229  0.61698833    -0.80100
Cd409      Cd  0.14133108  0.32893252  0.64113057     1.59700
Cd410      Cd  0.13197651  0.38235520  0.62019556     1.59600
O411        O  0.11762065  0.32350104  0.61081649    -0.80100
O412        O  0.15299846  0.36344620  0.64255157    -1.90600
Cd413      Cd  0.18742016  0.36566892  0.63051593     1.59900
O414        O  0.11956776  0.36007601  0.59225823    -0.80000
O415        O  0.20978102  0.37548780  0.65964900    -0.78700
C416        C  0.10142588  0.40394096  0.66165065     0.83800
C417        C  0.12974873  0.33050442  0.69651196     0.83500
O418        O  0.18313154  0.39332668  0.68554021    -0.77600
C419        C  0.19124623  0.30960328  0.62168009     0.84300
O420        O  0.11961390  0.40093284  0.67646314    -0.77700
C421        C  0.11378160  0.33732929  0.59214830     0.84400
C422        C  0.17526259  0.41320266  0.60193779     0.84800
O423        O  0.15226991  0.41067391  0.60612296    -0.80200
O424        O  0.62409010  0.15070965  0.31265545    -0.77700
C425        C  0.69182332  0.11499806  0.32949276     0.83400
O426        O  0.59196821  0.10100671  0.37177268    -0.78800
O427        O  0.68112252  0.10869786  0.40341136    -0.80300
O428        O  0.65501008  0.19669851  0.37811921    -0.80100
O429        O  0.60950398  0.18101905  0.33640050    -0.78700
Zn430      Zn  0.63636450  0.12439651  0.33538058     1.55700
O431        O  0.68567896  0.17258866  0.39148890    -0.80100
Cd432      Cd  0.62647447  0.17210929  0.37016811     1.59700
Cd433      Cd  0.62100767  0.11699300  0.39081748     1.59600
O434        O  0.60377352  0.17548250  0.40133171    -0.80100
O435        O  0.63989952  0.13803537  0.36806451    -1.90600
Cd436      Cd  0.67498268  0.13756520  0.37869156     1.59900
O437        O  0.60694831  0.13853820  0.41895250    -0.80000
O438        O  0.69662731  0.12702000  0.34917260    -0.78700
C439        C  0.59037336  0.09498340  0.34911215     0.83800
C440        C  0.61214514  0.17076793  0.31526811     0.83500
O441        O  0.66950902  0.11111129  0.32256447    -0.77600
C442        C  0.67606486  0.19394200  0.38845933     0.84300
O443        O  0.60771663  0.09989950  0.33395440    -0.77700
C444        C  0.60037000  0.16111041  0.41967044     0.84400
C445        C  0.66753513  0.09025917  0.40902283     0.84800
O446        O  0.64434793  0.09003675  0.40458156    -0.80200
C447        C  0.50378277  0.25609437  0.60603441     0.04000
C448        C  0.48648419  0.27029978  0.59272620    -0.12200
C449        C  0.48648579  0.26992968  0.56687690     0.01500
C450        C  0.50330143  0.25507986  0.55434937    -0.10700
C451        C  0.52046923  0.24075179  0.56700925     0.03900
C452        C  0.52093852  0.24134920  0.59296985    -0.10100
H453        H  0.47333893  0.28184566  0.60241039     0.09500
H454        H  0.50309055  0.25476136  0.53433651     0.07100
H455        H  0.53420313  0.23022669  0.60285776     0.06900
O456        O  0.37501680  0.34203591  0.31137482    -0.77700
C457        C  0.30944982  0.38215159  0.32844966     0.83400
O458        O  0.41145697  0.39499391  0.36652697    -0.78800
O459        O  0.32350582  0.39206489  0.40121357    -0.80300
O460        O  0.34576762  0.30176105  0.38008183    -0.80100
O461        O  0.38939200  0.31301620  0.33672717    -0.78700
Zn462      Zn  0.36519634  0.37079027  0.33262802     1.55700
O463        O  0.31599838  0.32718511  0.39305311    -0.80100
Cd464      Cd  0.37448397  0.32505851  0.37022321     1.59700
Cd465      Cd  0.38248808  0.38089038  0.38668105     1.59600
O466        O  0.39810584  0.32329592  0.40093131    -0.80100
O467        O  0.36196158  0.35917755  0.36603622    -1.90600
Cd468      Cd  0.32727411  0.36131185  0.37796925     1.59900
O469        O  0.39622944  0.36153887  0.41599111    -0.80000
O470        O  0.30472715  0.37105709  0.34861462    -0.78700
C471        C  0.41297477  0.39971832  0.34361694     0.83800
C472        C  0.38603339  0.32158992  0.31502916     0.83500
O473        O  0.33171145  0.38471351  0.32074701    -0.77600
C474        C  0.32506705  0.30546708  0.39067364     0.84300
O475        O  0.39529718  0.39417224  0.32886668    -0.77700
C476        C  0.40225950  0.33897933  0.41811726     0.84400
C477        C  0.33817614  0.41022675  0.40498616     0.84800
O478        O  0.36101526  0.40912886  0.39949066    -0.80200
C479        C  0.56271763  0.48330803  0.26995625     0.04000
C480        C  0.55057033  0.49998958  0.25461696    -0.12200
C481        C  0.56362594  0.51726016  0.24077061     0.01500
C482        C  0.58950301  0.51833265  0.24260463    -0.10700
C483        C  0.60236576  0.50160175  0.25777876     0.03900
C484        C  0.58880118  0.48394525  0.27144227    -0.10100
H485        H  0.53055082  0.49949327  0.25338000     0.09500
H486        H  0.59961668  0.53177162  0.23187313     0.07100
H487        H  0.59840866  0.47097998  0.28316160     0.06900
C488        C  0.49610938  0.73650554  0.95159458     0.04000
C489        C  0.49385740  0.73762701  0.92589549    -0.12200
C490        C  0.51187652  0.74998331  0.91175330     0.01500
C491        C  0.53219774  0.76128924  0.92390511    -0.10700
C492        C  0.53407332  0.76044464  0.94981284     0.03900
C493        C  0.51584061  0.74825530  0.96322274    -0.10100
H494        H  0.47846113  0.72846236  0.91693066     0.09500
H495        H  0.54621033  0.77082880  0.91337389     0.07100
H496        H  0.51714778  0.74767214  0.98316475     0.06900
O497        O  0.35261643  0.59272306  0.13446530    -0.77700
C498        C  0.42044742  0.61075393  0.16974853     0.83400
O499        O  0.31677346  0.64479620  0.18637916    -0.78800
O500        O  0.40221354  0.68433397  0.18303575    -0.80300
O501        O  0.38184696  0.66068572  0.09391092    -0.80100
O502        O  0.34067721  0.61621557  0.10321234    -0.78700
Zn503      Zn  0.36435429  0.61418609  0.16218857     1.55700
O504        O  0.41143884  0.67461671  0.11896010    -0.80100
Cd505      Cd  0.35309148  0.65042452  0.11606301     1.59700
Cd506      Cd  0.34321104  0.66778910  0.17109002     1.59600
O507        O  0.32874706  0.68009251  0.11235871    -0.80100
O508        O  0.36539057  0.64765901  0.15041181    -1.90600
Cd509      Cd  0.39964442  0.66067125  0.15282707     1.59900
O510        O  0.32663931  0.69535407  0.15034479    -0.80000
O511        O  0.42364659  0.63245439  0.16147700    -0.78700
C512        C  0.31863518  0.62250927  0.19359759     0.83800
C513        C  0.34349732  0.59497392  0.11294824     0.83500
O514        O  0.39873722  0.60176352  0.17229191    -0.77600
C515        C  0.40272331  0.67099822  0.09732411     0.84300
O516        O  0.33798911  0.60995691  0.18868452    -0.77700
C517        C  0.32215389  0.69708075  0.12733440     0.84400
C518        C  0.38697515  0.68943497  0.20029304     0.84800
O519        O  0.36411545  0.68377659  0.19876086    -0.80200
C520        C  0.26625091  0.56139517  0.48309677     0.04000
C521        C  0.26838474  0.58715726  0.48304130    -0.12200
C522        C  0.25643273  0.60133430  0.50130979     0.01500
C523        C  0.24241194  0.58931596  0.51962673    -0.10700
C524        C  0.24003300  0.56351954  0.51915852     0.03900
C525        C  0.25197111  0.54989771  0.50095838    -0.10100
H526        H  0.27958271  0.59606660  0.46915028     0.09500
H527        H  0.23311935  0.59991197  0.53377387     0.07100
H528        H  0.25050489  0.52993849  0.50098065     0.06900
O529        O  0.59632525  0.87585874  0.15826162    -0.77700
C530        C  0.61892945  0.83302949  0.09797993     0.83400
O531        O  0.64948900  0.82149992  0.20111748    -0.78800
O532        O  0.69069227  0.82641650  0.11577746    -0.80300
O533        O  0.66986719  0.91418701  0.13952797    -0.80100
O534        O  0.62050776  0.90457248  0.17525861    -0.78700
Zn535      Zn  0.61849763  0.84640494  0.15273113     1.55700
O536        O  0.68060150  0.89031058  0.10790467    -0.80100
Cd537      Cd  0.65527576  0.89102222  0.16596487     1.59700
Cd538      Cd  0.67234244  0.83542404  0.17357867     1.59600
O539        O  0.68100486  0.89198947  0.19444667    -0.80100
O540        O  0.65237987  0.85727296  0.15241344    -1.90600
Cd541      Cd  0.66625844  0.85602789  0.11879042     1.59900
O542        O  0.70047546  0.85634737  0.18921922    -0.80000
O543        O  0.63850297  0.84576284  0.09492111    -0.78700
C544        C  0.62603152  0.81895131  0.20201081     0.83800
C545        C  0.59914182  0.89666580  0.16895276     0.83500
O546        O  0.60956214  0.82981080  0.11941947    -0.77600
C547        C  0.67940784  0.91151207  0.11823838     0.84300
O548        O  0.61272857  0.82572569  0.18374405    -0.77700
C549        C  0.69987787  0.87826364  0.19779656     0.84400
C550        C  0.69466857  0.80779507  0.12962118     0.84800
O551        O  0.68767482  0.80760348  0.15207954    -0.80200
C552        C  0.75328286  0.66790626  0.02259286     0.04000
C553        C  0.75274518  0.64200360  0.02307828    -0.12200
C554        C  0.76103272  0.62829655  0.00256650     0.01500
C555        C  0.77026854  0.64080201  0.98179342    -0.10700
C556        C  0.77143666  0.66669840  0.98165371     0.03900
C557        C  0.76264268  0.67995004  0.00193785    -0.10100
H558        H  0.74558515  0.63259647  0.03911967     0.09500
H559        H  0.77694667  0.63045248  0.96607012     0.07100
H560        H  0.76314481  0.69993833  0.00166863     0.06900
O561        O  0.87718968  0.17011665  0.70332594    -0.77700
C562        C  0.81108970  0.13083649  0.68785565     0.83400
O563        O  0.91114691  0.12039176  0.64395421    -0.78800
O564        O  0.82153567  0.12003286  0.61601897    -0.80300
O565        O  0.84333984  0.21096664  0.63546756    -0.80100
O566        O  0.88821653  0.20088044  0.67841905    -0.78700
Zn567      Zn  0.86622721  0.14210158  0.68126764     1.55700
O568        O  0.81372079  0.18495949  0.62335049    -0.80100
Cd569      Cd  0.87291847  0.18902360  0.64507833     1.59700
Cd570      Cd  0.88126987  0.13465874  0.62528938     1.59600
O571        O  0.89626187  0.19315535  0.61475896    -0.80100
O572        O  0.86152471  0.15449486  0.64829380    -1.90600
Cd573      Cd  0.82648741  0.15151080  0.63796507     1.59900
O574        O  0.89311072  0.15645690  0.59636466    -0.80000
O575        O  0.80574437  0.14254210  0.66824683    -0.78700
C576        C  0.91320519  0.11416847  0.66648152     0.83800
C577        C  0.88695340  0.19123375  0.69984598     0.83500
O578        O  0.83358591  0.12748458  0.69451510    -0.77600
C579        C  0.82237102  0.20686107  0.62545759     0.84300
O580        O  0.89607236  0.11870953  0.68207488    -0.77700
C581        C  0.89939182  0.17913628  0.59606925     0.84400
C582        C  0.83672430  0.10285874  0.61047659     0.84800
O583        O  0.85997945  0.10557223  0.61315779    -0.80200
C584        C  0.67102054  0.98321569  0.75498679     0.04000
C585        C  0.64501065  0.98267234  0.75562184    -0.12200
C586        C  0.63115354  0.00380037  0.74910704     0.01500
C587        C  0.64390743  0.02532861  0.74174819    -0.10700
C588        C  0.66987017  0.02560702  0.74075099     0.03900
C589        C  0.68310998  0.00459726  0.74739285    -0.10100
H590        H  0.63569024  0.96612747  0.76175597     0.09500
H591        H  0.63373475  0.04168396  0.73652650     0.07100
H592        H  0.70315675  0.00497525  0.74688361     0.06900
O593        O  0.84960396  0.91419859  0.86590040    -0.77700
C594        C  0.91601390  0.89525032  0.83369592     0.83400
O595        O  0.81494480  0.85553024  0.81356355    -0.78800
O596        O  0.90348661  0.82498259  0.82332891    -0.80300
O597        O  0.87459303  0.85157428  0.91048845    -0.80100
O598        O  0.82983055  0.89034055  0.89276463    -0.78700
Zn599      Zn  0.86008118  0.89101492  0.83874311     1.55700
O600        O  0.90334818  0.83206536  0.88868308    -0.80100
Cd601      Cd  0.84697282  0.85700257  0.88485414     1.59700
Cd602      Cd  0.84297253  0.83572843  0.83041442     1.59600
O603        O  0.82545385  0.82531193  0.88839513    -0.80100
O604        O  0.86155815  0.85838591  0.85181581    -1.90600
Cd605      Cd  0.89601821  0.84718009  0.85385798     1.59900
O606        O  0.82912779  0.80728412  0.85158790    -0.80000
O607        O  0.91880007  0.87711297  0.84830704    -0.78700
C608        C  0.81390977  0.87839784  0.80816889     0.83800
C609        C  0.83559585  0.91166042  0.88460523     0.83500
O610        O  0.89446635  0.90150965  0.82607715    -0.77600
C611        C  0.89394001  0.83823703  0.90943217     0.84300
O612        O  0.83134509  0.89325197  0.81415758    -0.77700
C613        C  0.82281303  0.80664579  0.87419750     0.84400
C614        C  0.89034547  0.81857603  0.80476112     0.84800
O615        O  0.86698804  0.82172733  0.80455354    -0.80200
O616        O  0.13497384  0.65413734  0.81105523    -0.77700
C617        C  0.20107081  0.61787871  0.82870477     0.83400
O618        O  0.09960700  0.60525797  0.86948825    -0.78800
O619        O  0.18775880  0.60872307  0.90197193    -0.80300
O620        O  0.16619371  0.69848292  0.87732279    -0.80100
O621        O  0.12221731  0.68564497  0.83426374    -0.78700
Zn622      Zn  0.14552776  0.62724963  0.83391248     1.55700
O623        O  0.19507173  0.67313079  0.89216132    -0.80100
Cd624      Cd  0.13695456  0.67545218  0.86840216     1.59700
Cd625      Cd  0.12812482  0.62122625  0.88940404     1.59600
O626        O  0.11319965  0.68050063  0.89837229    -0.80100
O627        O  0.14867875  0.64078382  0.86675523    -1.90600
Cd628      Cd  0.18338178  0.63880649  0.87831970     1.59900
O629        O  0.11435586  0.64395664  0.91707004    -0.80000
O630        O  0.20537037  0.62906547  0.84895546    -0.78700
C631        C  0.09835704  0.59879088  0.84689891     0.83800
C632        C  0.12476980  0.67515647  0.81328497     0.83500
O633        O  0.17889750  0.61395566  0.82131300    -0.77600
C634        C  0.18661636  0.69487833  0.88853985     0.84300
O635        O  0.11605614  0.60346264  0.83201363    -0.77700
C636        C  0.10871943  0.66681064  0.91696614     0.84400
C637        C  0.17270780  0.59161858  0.90808226     0.84800
O638        O  0.14953479  0.59345398  0.90414746    -0.80200
C639        C  0.01616971  0.74911240  0.62626444     0.04000
C640        C  0.99518069  0.75767200  0.63905653    -0.12200
C641        C  0.99476232  0.75754377  0.66487496     0.01500
C642        C  0.01512361  0.74877695  0.67790110    -0.10700
C643        C  0.03602209  0.74010912  0.66566461     0.03900
C644        C  0.03670239  0.74035864  0.63977037    -0.10100
H645        H  0.97934825  0.76461741  0.62900589     0.09500
H646        H  0.01465899  0.74860999  0.69788060     0.07100
H647        H  0.05285376  0.73344029  0.63025381     0.06900
C648        C  0.95125783  0.51364203  0.77013885     0.04000
C649        C  0.96400524  0.49734211  0.75492812    -0.12200
C650        C  0.95154030  0.48053081  0.73993707     0.01500
C651        C  0.92547963  0.47985694  0.74017050    -0.10700
C652        C  0.91205916  0.49649249  0.75519415     0.03900
C653        C  0.92522672  0.51351035  0.77009896    -0.10100
H654        H  0.98406993  0.49767729  0.75483481     0.09500
H655        H  0.91575495  0.46684215  0.72848551     0.07100
H656        H  0.91530867  0.52625693  0.78184832     0.06900
C657        C  0.34779362  0.48254215  0.74912805     0.04000
C658        C  0.33474493  0.50323447  0.75716029    -0.12200
C659        C  0.34697226  0.52417061  0.76588210     0.01500
C660        C  0.37297165  0.52482375  0.76593085    -0.10700
C661        C  0.38656756  0.50409864  0.75785549     0.03900
C662        C  0.37375690  0.48292219  0.74956193    -0.10100
H663        H  0.31468676  0.50294317  0.75690244     0.09500
H664        H  0.38250689  0.54099500  0.77285012     0.07100
H665        H  0.38392839  0.46686135  0.74342043     0.06900
C666        C  0.76405388  0.90889187  0.51216489     0.04000
C667        C  0.77597133  0.92283824  0.53074598    -0.12200
C668        C  0.77569024  0.94870792  0.52988599     0.01500
C669        C  0.76315349  0.96062079  0.51091424    -0.10700
C670        C  0.75103700  0.94736296  0.49247565     0.03900
C671        C  0.75155723  0.92140004  0.49294338    -0.10100
H672        H  0.78587149  0.91365875  0.54544298     0.09500
H673        H  0.76274168  0.98061903  0.51055944     0.07100
H674        H  0.74205197  0.91105411  0.47869737     0.06900
C675        C  0.00188406  0.26034513  0.40719809     0.04000
C676        C  0.98292144  0.24902560  0.42112042    -0.12200
C677        C  0.98390661  0.24943307  0.44704776     0.01500
C678        C  0.00326976  0.26162956  0.45885779    -0.10700
C679        C  0.02210744  0.27286173  0.44551904     0.03900
C680        C  0.02161017  0.27212525  0.41965578    -0.10100
H681        H  0.96793594  0.23946894  0.41188944     0.09500
H682        H  0.00398208  0.26192398  0.47883877     0.07100
H683        H  0.03634696  0.28077341  0.40932525     0.06900
C684        C  0.01342779  0.25673109  0.87853607     0.04000
C685        C  0.99221787  0.24916336  0.86532534    -0.12200
C686        C  0.99202346  0.24967271  0.83947947     0.01500
C687        C  0.01291479  0.25784533  0.82684972    -0.10700
C688        C  0.03401654  0.26562360  0.83955630     0.03900
C689        C  0.03438630  0.26492789  0.86543468    -0.10100
H690        H  0.97597401  0.24282138  0.87507958     0.09500
H691        H  0.01261721  0.25849542  0.80688304     0.07100
H692        H  0.05065421  0.27122351  0.87528120     0.06900
C693        C  0.48178673  0.75060312  0.34719409     0.04000
C694        C  0.48174184  0.74892315  0.37305441    -0.12200
C695        C  0.50274908  0.75620741  0.38686749     0.01500
C696        C  0.52378883  0.76515699  0.37414665    -0.10700
C697        C  0.52356137  0.76714348  0.34825208     0.03900
C698        C  0.50248982  0.76002971  0.33518181    -0.10100
H699        H  0.46577497  0.74124367  0.38227705     0.09500
H700        H  0.54019276  0.77054938  0.38428772     0.07100
H701        H  0.50252695  0.76103503  0.31522293     0.06900
C702        C  0.87886386  0.00169228  0.25965271     0.04000
C703        C  0.86702281  0.97868644  0.25601373    -0.12200
C704        C  0.84113580  0.97675846  0.25668188     0.01500
C705        C  0.82702513  0.99790546  0.26068805    -0.10700
C706        C  0.83809092  0.02072335  0.26502694     0.03900
C707        C  0.86410924  0.02277297  0.26432003    -0.10100
H708        H  0.87789646  0.96227488  0.25265529     0.09500
H709        H  0.80702194  0.99645107  0.26119435     0.07100
H710        H  0.87275893  0.04039996  0.26806421     0.06900
C711        C  0.25918197  0.87928754  0.00454365     0.04000
C712        C  0.26567374  0.86641356  0.02618912    -0.12200
C713        C  0.26520381  0.84051012  0.02659640     0.01500
C714        C  0.25766261  0.82754442  0.00565274    -0.10700
C715        C  0.25122302  0.83976047  0.98395661     0.03900
C716        C  0.25208437  0.86574795  0.98333130    -0.10100
H717        H  0.27168504  0.87646792  0.04239822     0.09500
H718        H  0.25727089  0.80755466  0.00610361     0.07100
H719        H  0.24717446  0.87533656  0.96656004     0.06900
C720        C  0.74187280  0.34159931  0.48002602     0.04000
C721        C  0.74912562  0.33040732  0.50203727    -0.12200
C722        C  0.75739716  0.34437113  0.52205861     0.01500
C723        C  0.75795572  0.37018588  0.52032553    -0.10700
C724        C  0.75053623  0.38201193  0.49838673     0.03900
C725        C  0.74265463  0.36749498  0.47813985    -0.10100
H726        H  0.74870816  0.31047006  0.50347415     0.09500
H727        H  0.76446488  0.38098818  0.53585711     0.07100
H728        H  0.73691642  0.37626254  0.46117981     0.06900
C729        C  0.16995670  0.48216053  0.25713281     0.04000
C730        C  0.14389602  0.48195854  0.25623603    -0.12200
C731        C  0.13062414  0.50353965  0.24987667     0.01500
C732        C  0.14406383  0.52531072  0.24447067    -0.10700
C733        C  0.17013104  0.52531955  0.24517820     0.03900
C734        C  0.18265575  0.50375188  0.25138736    -0.10100
H735        H  0.13402018  0.46528896  0.26104599     0.09500
H736        H  0.13434787  0.54205312  0.23962571     0.07100
H737        H  0.20269778  0.50390581  0.25221146     0.06900
C738        C  0.25863073  0.40608385  0.01298440     0.04000
C739        C  0.24415915  0.41833610  0.99502089    -0.12200
C740        C  0.24258166  0.44430084  0.99518709     0.01500
C741        C  0.25581365  0.45772905  0.01272258    -0.10700
C742        C  0.27057491  0.44600783  0.03011507     0.03900
C743        C  0.27183071  0.42018617  0.03050414    -0.10100
H744        H  0.23406005  0.40781560  0.98131846     0.09500
H745        H  0.25502432  0.47772060  0.01250295     0.07100
H746        H  0.28340791  0.41114311  0.04402923     0.06900
C747        C  0.40885147  0.00156283  0.24335928     0.04000
C748        C  0.42104950  0.01861534  0.25890983    -0.12200
C749        C  0.44699626  0.02020293  0.25889942     0.01500
C750        C  0.46059570  0.00528613  0.24297157    -0.10700
C751        C  0.44897128  0.98818449  0.22756396     0.03900
C752        C  0.42303092  0.98606373  0.22792674    -0.10100
H753        H  0.41046955  0.03009747  0.27137000     0.09500
H754        H  0.48062851  0.00633526  0.24325884     0.07100
H755        H  0.41396910  0.97262703  0.21618978     0.06900
C756        C  0.50064002  0.25056520  0.13099247     0.04000
C757        C  0.51964327  0.23861749  0.14417390    -0.12200
C758        C  0.51733674  0.23494845  0.16968139     0.01500
C759        C  0.49623218  0.24322940  0.18185612    -0.10700
C760        C  0.47747896  0.25552314  0.16923962     0.03900
C761        C  0.47956160  0.25911425  0.14368709    -0.10100
H762        H  0.53604776  0.23227180  0.13468654     0.09500
H763        H  0.49480083  0.24086353  0.20164246     0.07100
H764        H  0.46507725  0.26872059  0.13382838     0.06900
C765        C  0.25945866  0.12243525  0.51084499     0.04000
C766        C  0.25318357  0.13561255  0.53253012    -0.12200
C767        C  0.25335892  0.16159423  0.53271607     0.01500
C768        C  0.25995311  0.17429564  0.51140169    -0.10700
C769        C  0.26621896  0.16176850  0.48983559     0.03900
C770        C  0.26591797  0.13584282  0.48948361    -0.10100
H771        H  0.24777754  0.12577802  0.54898614     0.09500
H772        H  0.26005465  0.19429669  0.51155002     0.07100
H773        H  0.27103342  0.12619275  0.47276992     0.06900
C774        C  0.00016026  0.75940952  0.09789811     0.04000
C775        C  0.01926522  0.74697833  0.08510338    -0.12200
C776        C  0.01945201  0.74644942  0.05914466     0.01500
C777        C  0.00100923  0.75874309  0.04612140    -0.10700
C778        C  0.98197892  0.77109641  0.05825736     0.03900
C779        C  0.98143470  0.77137409  0.08418295    -0.10100
H780        H  0.03350354  0.73730859  0.09523949     0.09500
H781        H  0.00123739  0.75833503  0.02613944     0.07100
H782        H  0.96663770  0.78095136  0.09359677     0.06900
C783        C  0.75998712  0.09374965  0.00240419     0.04000
C784        C  0.74924003  0.08057369  0.02217429    -0.12200
C785        C  0.74897678  0.05460162  0.02197181     0.01500
C786        C  0.75988940  0.04196045  0.00240631    -0.10700
C787        C  0.77052801  0.05456279  0.98273348     0.03900
C788        C  0.77059491  0.08043263  0.98268719    -0.10100
H789        H  0.74049613  0.09040293  0.03719037     0.09500
H790        H  0.75964444  0.02196155  0.00223894     0.07100
H791        H  0.77894359  0.09011075  0.96739546     0.06900
C792        C  0.05933378  0.99237134  0.76455894     0.04000
C793        C  0.04738902  0.01163314  0.75248113    -0.12200
C794        C  0.06064940  0.02962173  0.73988218     0.01500
C795        C  0.08665325  0.02908767  0.74022372    -0.10700
C796        C  0.09925327  0.01001963  0.75275460     0.03900
C797        C  0.08535057  0.99149714  0.76470733    -0.10100
H798        H  0.02733453  0.01215592  0.75214810     0.09500
H799        H  0.09696949  0.04299723  0.73032231     0.07100
H800        H  0.09468803  0.97658553  0.77410938     0.06900
C801        C  0.25367548  0.78840174  0.93645037    -0.04600
C802        C  0.22828589  0.78424692  0.93211026     0.09500
C803        C  0.21082684  0.80127241  0.94134236    -0.02000
C804        C  0.21855478  0.82117659  0.95641848    -0.00300
C805        C  0.24380110  0.82415255  0.96243243    -0.03900
C806        C  0.26139760  0.80822553  0.95155666     0.03100
C807        C  0.21974263  0.76076191  0.91993697     0.10000
C808        C  0.18474939  0.79745046  0.93642659     0.35900
C809        C  0.28745794  0.81155828  0.95693656     0.39300
C810        C  0.21867835  0.73874088  0.93370125    -0.04300
C811        C  0.20896839  0.71693685  0.92312108     0.02900
C812        C  0.20005345  0.71690423  0.89857627    -0.03900
C813        C  0.20190908  0.73886280  0.88456035    -0.00100
C814        C  0.21180554  0.76059746  0.89518451    -0.02700
C815        C  0.22685668  0.73877788  0.95916431     0.36600
C816        C  0.19365329  0.73920349  0.85912497     0.40200
C817        C  0.20679769  0.69497875  0.93813991     0.39300
C818        C  0.21360509  0.78295785  0.88075082     0.36300
C819        C  0.27177265  0.77156551  0.92624007     0.37000
C820        C  0.20035959  0.83759103  0.96710483     0.40200
N821        N  0.20502012  0.67747691  0.95012915    -0.37900
N822        N  0.23340223  0.73887822  0.97946405    -0.39400
N823        N  0.18698354  0.73953434  0.83886460    -0.37200
N824        N  0.21505249  0.80082232  0.86926429    -0.39600
N825        N  0.16396699  0.79429652  0.93242566    -0.39400
N826        N  0.18582936  0.85069501  0.97563010    -0.37000
N827        N  0.30824458  0.81416791  0.96127807    -0.38000
N828        N  0.28619378  0.75807945  0.91813567    -0.39700
C829        C  0.23003187  0.48772501  0.94247159    -0.04600
C830        C  0.20879699  0.50001010  0.95122986     0.09500
C831        C  0.19622437  0.49066152  0.97193758    -0.02000
C832        C  0.20582037  0.47024751  0.98486230    -0.00300
C833        C  0.22802761  0.45895071  0.97711590    -0.03900
C834        C  0.23961166  0.46724892  0.95537313     0.03100
C835        C  0.20027855  0.52353665  0.93948385     0.10000
C836        C  0.17407488  0.50290724  0.98063419     0.35900
C837        C  0.26242539  0.45580123  0.94735283     0.39300
C838        C  0.18254366  0.52298421  0.92047448    -0.04300
C839        C  0.17360992  0.54516862  0.91026866     0.02900
C840        C  0.18239407  0.56827445  0.91901694    -0.03900
C841        C  0.20071733  0.56871213  0.93765192    -0.00100
C842        C  0.20949323  0.54644081  0.94790123    -0.02700
C843        C  0.17359826  0.49945246  0.91135067     0.36600
C844        C  0.21014071  0.59205437  0.94678932     0.40200
C845        C  0.15597011  0.54403306  0.89010684     0.39300
C846        C  0.22792040  0.54702641  0.96732791     0.36300
C847        C  0.24267698  0.49696183  0.92087763     0.37000
C848        C  0.19377597  0.46186628  0.00715245     0.40200
N849        N  0.14191620  0.54312279  0.87402818    -0.37900
N850        N  0.16654901  0.48064787  0.90406740    -0.39400
N851        N  0.21769970  0.61069066  0.95400964    -0.37200
N852        N  0.24262248  0.54744673  0.98283074    -0.39600
N853        N  0.15644173  0.51279808  0.98750316    -0.39400
N854        N  0.18421542  0.45524527  0.02498870    -0.37000
N855        N  0.28066338  0.44664005  0.94107094    -0.38000
N856        N  0.25276273  0.50441255  0.90366722    -0.39700
C857        C  0.07213343  0.73310875  0.01505579    -0.04600
C858        C  0.06465978  0.71011914  0.00526398     0.09500
C859        C  0.04461602  0.69752825  0.01608789    -0.02000
C860        C  0.03105890  0.70857635  0.03537387    -0.00300
C861        C  0.03770422  0.73214779  0.04435495    -0.03900
C862        C  0.05870622  0.74407545  0.03455590     0.03100
C863        C  0.07669590  0.69977563  0.98252920     0.10000
C864        C  0.03736589  0.67356474  0.00662868     0.35900
C865        C  0.06558838  0.76828835  0.04363350     0.39300
C866        C  0.09743184  0.68418901  0.98442066    -0.04300
C867        C  0.10798307  0.67362624  0.96304586     0.02900
C868        C  0.09744511  0.67802038  0.93952136    -0.03900
C869        C  0.07668541  0.69375260  0.93771178    -0.00100
C870        C  0.06658975  0.70479125  0.95906704    -0.02700
C871        C  0.10783954  0.67899061  0.00847105     0.36600
C872        C  0.06507972  0.69789846  0.91398827     0.40200
C873        C  0.13029342  0.65898183  0.96527240     0.39300
C874        C  0.04566476  0.72133635  0.95697415     0.36300
C875        C  0.09300513  0.74591133  0.00433454     0.37000
C876        C  0.00921844  0.69641064  0.04490863     0.40200
N877        N  0.14816085  0.64741028  0.96703028    -0.37900
N878        N  0.11606413  0.67483278  0.02769826    -0.39400
N879        N  0.05576070  0.70109007  0.89506627    -0.37200
N880        N  0.02904517  0.73463990  0.95537107    -0.39600
N881        N  0.03168222  0.65443446  0.99901935    -0.39400
N882        N  0.99169649  0.68680333  0.05241972    -0.37000
N883        N  0.07099751  0.78762830  0.05090701    -0.38000
N884        N  0.10966025  0.75612367  0.99574430    -0.39700
C885        C  0.26752433  0.61110565  0.80569522    -0.04600
C886        C  0.26683203  0.58759605  0.79469355     0.09500
C887        C  0.24387640  0.57557672  0.79154868    -0.02000
C888        C  0.22203630  0.58587900  0.80146716    -0.00300
C889        C  0.22288210  0.60873798  0.81421009    -0.03900
C890        C  0.24567952  0.62182111  0.81506089     0.03100
C891        C  0.29038302  0.57420140  0.78881283     0.10000
C892        C  0.24299269  0.55205389  0.77878111     0.35900
C893        C  0.24690607  0.64636015  0.82571729     0.39300
C894        C  0.29898900  0.55583191  0.80506609    -0.04300
C895        C  0.31955488  0.54123862  0.79869849     0.02900
C896        C  0.33134639  0.54445282  0.77575727    -0.03900
C897        C  0.32375175  0.56381344  0.76018588    -0.00100
C898        C  0.30346400  0.57884477  0.76681921    -0.02700
C899        C  0.28589795  0.55121108  0.82788754     0.36600
C900        C  0.33595603  0.56728115  0.73671683     0.40200
C901        C  0.32798207  0.52212332  0.81531693     0.39300
C902        C  0.29541853  0.59840546  0.75058794     0.36300
C903        C  0.29096201  0.62390158  0.80814400     0.37000
C904        C  0.19916186  0.57201975  0.79975737     0.40200
N905        N  0.33474155  0.50697643  0.82867020    -0.37900
N906        N  0.27524274  0.54746545  0.84594722    -0.39400
N907        N  0.34574430  0.56991581  0.71798470    -0.37200
N908        N  0.28909564  0.61411882  0.73768267    -0.39600
N909        N  0.24242140  0.53332198  0.76854811    -0.39400
N910        N  0.18099441  0.56081843  0.79835288    -0.37000
N911        N  0.24793166  0.66590047  0.83426652    -0.38000
N912        N  0.30966879  0.63409887  0.81004589    -0.39700
C913        C  0.99877415  0.53177907  0.81790744    -0.04600
C914        C  0.00748481  0.55424152  0.80817545     0.09500
C915        C  0.99455746  0.56540490  0.78853417    -0.02000
C916        C  0.97418996  0.55324814  0.77750490    -0.00300
C917        C  0.96652343  0.52997029  0.78619805    -0.03900
C918        C  0.97833182  0.51973680  0.80701711     0.03100
C919        C  0.03080714  0.56563264  0.81811935     0.10000
C920        C  0.00284631  0.58896692  0.77912604     0.35900
C921        C  0.97017404  0.49609264  0.81638850     0.39300
C922        C  0.05399061  0.55874028  0.80844961    -0.04300
C923        C  0.07605413  0.56891620  0.81819039     0.02900
C924        C  0.07516814  0.58660129  0.83748465    -0.03900
C925        C  0.05166880  0.59349155  0.84701809    -0.00100
C926        C  0.02975078  0.58289464  0.83748003    -0.02700
C927        C  0.05506290  0.54116107  0.78829577     0.36600
C928        C  0.04964866  0.61218368  0.86608098     0.40200
C929        C  0.09962990  0.56053076  0.80867524     0.39300
C930        C  0.00590055  0.58989446  0.84743521     0.36300
C931        C  0.01151876  0.52060036  0.83854559     0.37000
C932        C  0.96195496  0.56398729  0.75633592     0.40200
N933        N  0.11840204  0.55376071  0.80106193    -0.37900
N934        N  0.05585522  0.52720807  0.77215847    -0.39400
N935        N  0.04794143  0.62706607  0.88129615    -0.37200
N936        N  0.98683113  0.59541382  0.85530598    -0.39600
N937        N  0.00948979  0.60779785  0.77168732    -0.39400
N938        N  0.95214767  0.57251088  0.73943605    -0.37000
N939        N  0.96360578  0.47722241  0.82379145    -0.38000
N940        N  0.02175880  0.51170647  0.85499119    -0.39700
C941        C  0.08444994  0.73793281  0.71567833    -0.04600
C942        C  0.08374233  0.71273277  0.72186026     0.09500
C943        C  0.07089285  0.69598480  0.70653320    -0.02000
C944        C  0.05711124  0.70471211  0.68626445    -0.00300
C945        C  0.05633110  0.73019182  0.68114840    -0.03900
C946        C  0.07078356  0.74665050  0.69536650     0.03100
C947        C  0.09477800  0.70418012  0.74562969     0.10000
C948        C  0.07090470  0.66993540  0.71239321     0.35900
C949        C  0.07029851  0.77280282  0.68997314     0.39300
C950        C  0.08016566  0.70370965  0.76713386    -0.04300
C951        C  0.09018863  0.69510554  0.78952686     0.02900
C952        C  0.11498613  0.68695449  0.79056916    -0.03900
C953        C  0.12971237  0.68791996  0.76904133    -0.00100
C954        C  0.11962928  0.69657885  0.74670375    -0.02700
C955        C  0.05462524  0.71176571  0.76604389     0.36600
C956        C  0.15534424  0.68011596  0.76984384     0.40200
C957        C  0.07452051  0.69339461  0.81110559     0.39300
C958        C  0.13473225  0.69756519  0.72470545     0.36300
C959        C  0.09825252  0.75501507  0.73102976     0.37000
C960        C  0.04219808  0.68775853  0.67181872     0.40200
N961        N  0.06200546  0.69194811  0.82829620    -0.37900
N962        N  0.03426575  0.71820880  0.76509593    -0.39400
N963        N  0.17576275  0.67381732  0.77047905    -0.37200
N964        N  0.14673968  0.69842623  0.70712418    -0.39600
N965        N  0.07094648  0.64915289  0.71709803    -0.39400
N966        N  0.03019243  0.67430494  0.66031668    -0.37000
N967        N  0.06981182  0.79367212  0.68569797    -0.38000
N968        N  0.10927951  0.76855728  0.74336881    -0.39700
C969        C  0.95938134  0.94662430  0.81118401    -0.04600
C970        C  0.98180594  0.93372047  0.80822077     0.09500
C971        C  0.98291100  0.90854718  0.81418062    -0.02000
C972        C  0.96155651  0.89601453  0.82230780    -0.00300
C973        C  0.93871806  0.90877349  0.82514880    -0.03900
C974        C  0.93799188  0.93433959  0.81976142     0.03100
C975        C  0.00394890  0.94633481  0.79741489     0.10000
C976        C  0.00617556  0.89549200  0.81169597     0.35900
C977        C  0.91549435  0.94833816  0.82355821     0.39300
C978        C  0.02095196  0.95903148  0.81262431    -0.04300
C979        C  0.04054696  0.97261763  0.80204585     0.02900
C980        C  0.04341642  0.97325346  0.77621116    -0.03900
C981        C  0.02739358  0.95905267  0.76117929    -0.00100
C982        C  0.00762492  0.94586406  0.77171774    -0.02700
C983        C  0.01778903  0.95865252  0.83910790     0.36600
C984        C  0.03075625  0.95875472  0.73467517     0.40200
C985        C  0.05688458  0.98705796  0.81761608     0.39300
C986        C  0.99046773  0.93247719  0.75604510     0.36300
C987        C  0.95838607  0.97265234  0.80526470     0.37000
C988        C  0.96324850  0.86970730  0.82680714     0.40200
N989        N  0.06994471  0.99862717  0.82999079    -0.37900
N990        N  0.01524819  0.95827178  0.86025288    -0.39400
N991        N  0.03340916  0.95855661  0.71353950    -0.37200
N992        N  0.97670812  0.92185194  0.74357982    -0.39600
N993        N  0.02478508  0.88518493  0.80977933    -0.39400
N994        N  0.96474433  0.84875081  0.83041081    -0.37000
N995        N  0.89757847  0.95956495  0.82659443    -0.38000
N996        N  0.95768684  0.99341580  0.80053003    -0.39700
C997        C  0.81623151  0.01631314  0.94630374    -0.04600
C998        C  0.79991651  0.00079346  0.93307766     0.09500
C999        C  0.77435898  0.00591047  0.93305025    -0.02000
C1000       C  0.76504583  0.02556281  0.94726391    -0.00300
C1001       C  0.78108150  0.03962508  0.96232619    -0.03900
C1002       C  0.80680967  0.03557287  0.96108768     0.03100
C1003       C  0.80934528  0.97805101  0.92055596     0.10000
C1004       C  0.75750396  0.99006511  0.91948338     0.35900
C1005       C  0.82342197  0.05034658  0.97605055     0.39300
C1006       C  0.81497903  0.95695712  0.93460934    -0.04300
C1007       C  0.82343558  0.93525645  0.92299563     0.02900
C1008       C  0.82587226  0.93427956  0.89702166    -0.03900
C1009       C  0.81947681  0.95536213  0.88294593    -0.00100
C1010       C  0.81166490  0.97721003  0.89473643    -0.02700
C1011       C  0.81187072  0.95759320  0.96114198     0.36600
C1012       C  0.81991381  0.95446247  0.85622322     0.40200
C1013       C  0.83015724  0.91422669  0.93802449     0.39300
C1014       C  0.80592025  0.99892116  0.88030302     0.36300
C1015       C  0.84261150  0.01174202  0.94546872     0.37000
C1016       C  0.73879995  0.03092455  0.94697272     0.40200
N1017       N  0.83546307  0.89745825  0.95003530    -0.37900
N1018       N  0.80935999  0.95816962  0.98229074    -0.39400
N1019       N  0.82015989  0.95375501  0.83492087    -0.37200
N1020       N  0.80132726  0.01625384  0.86882137    -0.39600
N1021       N  0.74410813  0.97732026  0.90872632    -0.39400
N1022       N  0.71787897  0.03527960  0.94650957    -0.37000
N1023       N  0.83664824  0.06217163  0.98800028    -0.38000
N1024       N  0.86365232  0.00801413  0.94479441    -0.39700
C1025       C  0.94135564  0.81726169  0.95778266    -0.04600
C1026       C  0.92622129  0.81359188  0.97860701     0.09500
C1027       C  0.90066789  0.81813064  0.97682878    -0.02000
C1028       C  0.89008198  0.82534625  0.95418208    -0.00300
C1029       C  0.90524149  0.82957572  0.93319551    -0.03900
C1030       C  0.93107695  0.82566557  0.93536446     0.03100
C1031       C  0.93712953  0.80369730  0.00204411     0.10000
C1032       C  0.88523068  0.81535729  0.99846618     0.35900
C1033       C  0.94737415  0.83077934  0.91482487     0.39300
C1034       C  0.95163327  0.81895377  0.01749686    -0.04300
C1035       C  0.96472135  0.80871673  0.03756654     0.02900
C1036       C  0.96295238  0.78326060  0.04259666    -0.03900
C1037       C  0.94675709  0.76847481  0.02838840    -0.00100
C1038       C  0.93410154  0.77857734  0.00805173    -0.02700
C1039       C  0.95378114  0.84501439  0.01211900     0.36600
C1040       C  0.94410751  0.74249376  0.03401919     0.40200
C1041       C  0.98128821  0.82402052  0.05203357     0.39300
C1042       C  0.91897404  0.76282682  0.99249454     0.36300
C1043       C  0.96761160  0.81209617  0.95941602     0.37000
C1044       C  0.86335934  0.82726532  0.95250820     0.40200
N1045       N  0.99458702  0.83618671  0.06355227    -0.37900
N1046       N  0.95545753  0.86580528  0.00775257    -0.39400
N1047       N  0.94199020  0.72177218  0.03851734    -0.37200
N1048       N  0.90691506  0.75031231  0.98002848    -0.39600
N1049       N  0.87295764  0.81326128  0.01575769    -0.39400
N1050       N  0.84205039  0.82867304  0.95122100    -0.37000
N1051       N  0.96042518  0.83488781  0.89848404    -0.38000
N1052       N  0.98853725  0.80792704  0.96079293    -0.39700
C1053       C  0.90525972  0.80472186  0.73707975    -0.04600
C1054       C  0.92807799  0.79251283  0.73917983     0.09500
C1055       C  0.93814985  0.78793792  0.76270760    -0.02000
C1056       C  0.92534629  0.79527488  0.78411683    -0.00300
C1057       C  0.90273186  0.80837101  0.78222491    -0.03900
C1058       C  0.89281232  0.81302311  0.75835961     0.03100
C1059       C  0.94163914  0.78409600  0.71668011     0.10000
C1060       C  0.96200148  0.77587879  0.76481140     0.35900
C1061       C  0.87028266  0.82719294  0.75526034     0.39300
C1062       C  0.95550657  0.80101674  0.70260268    -0.04300
C1063       C  0.97121142  0.79243340  0.68373314     0.02900
C1064       C  0.97349240  0.76690661  0.67927959    -0.03900
C1065       C  0.95855256  0.75014264  0.69240791    -0.00100
C1066       C  0.94228233  0.75878708  0.71069639    -0.02700
C1067       C  0.95457913  0.82710371  0.70838774     0.36600
C1068       C  0.96105874  0.72386466  0.68810830     0.40200
C1069       C  0.98632412  0.80968080  0.67002550     0.39300
C1070       C  0.92682414  0.74158678  0.72407216     0.36300
C1071       C  0.89467593  0.80886702  0.71286549     0.37000
C1072       C  0.93536881  0.78866968  0.80800312     0.40200
N1073       N  0.99842852  0.82334743  0.65902711    -0.37900
N1074       N  0.95383394  0.84792580  0.71298856    -0.39400
N1075       N  0.96327460  0.70290104  0.68484605    -0.37200
N1076       N  0.91441286  0.72795667  0.73477049    -0.39600
N1077       N  0.98104600  0.76631757  0.76635414    -0.39400
N1078       N  0.94342206  0.78327708  0.82699404    -0.37000
N1079       N  0.85233688  0.83849218  0.75268154    -0.38000
N1080       N  0.88627307  0.81216304  0.69354381    -0.39700
C1081       C  0.77120554  0.91969528  0.77015752    -0.04600
C1082       C  0.74779454  0.91322773  0.77961522     0.09500
C1083       C  0.74583912  0.89313885  0.79587661    -0.02000
C1084       C  0.76729063  0.88087626  0.80426098    -0.00300
C1085       C  0.79106753  0.88847560  0.79618631    -0.03900
C1086       C  0.79271648  0.90733458  0.77829660     0.03100
C1087       C  0.72559852  0.92900981  0.77427801     0.10000
C1088       C  0.72163878  0.88556531  0.80448868     0.35900
C1089       C  0.81654410  0.91395010  0.76806053     0.39300
C1090       C  0.71277540  0.92702523  0.75166527    -0.04300
C1091       C  0.69334984  0.94353940  0.74607081     0.02900
C1092       C  0.68666602  0.96213506  0.76303464    -0.03900
C1093       C  0.69863181  0.96325729  0.78615484    -0.00100
C1094       C  0.71794036  0.94673205  0.79178607    -0.02700
C1095       C  0.72005559  0.90841411  0.73392845     0.36600
C1096       C  0.69169431  0.98216094  0.80377597     0.40200
C1097       C  0.68091153  0.94214476  0.72243904     0.39300
C1098       C  0.73057933  0.94851509  0.81531977     0.36300
C1099       C  0.77318441  0.93952469  0.75243215     0.37000
C1100       C  0.76471891  0.86139764  0.82232286     0.40200
N1101       N  0.67089732  0.94109497  0.70361431    -0.37900
N1102       N  0.72592597  0.89358082  0.71975584    -0.39400
N1103       N  0.68616113  0.99729962  0.81776329    -0.37200
N1104       N  0.74066491  0.94982827  0.83409362    -0.39600
N1105       N  0.70229242  0.87957102  0.81127569    -0.39400
N1106       N  0.76257781  0.84586198  0.83671623    -0.37000
N1107       N  0.83555452  0.91915377  0.75983801    -0.38000
N1108       N  0.77470007  0.95526675  0.73819104    -0.39700
C1109       C  0.93484132  0.22162835  0.74159113    -0.04600
C1110       C  0.92227216  0.22211077  0.76432907     0.09500
C1111       C  0.89727363  0.21488599  0.76535091    -0.02000
C1112       C  0.88530252  0.20579565  0.74401271    -0.00300
C1113       C  0.89825028  0.20409237  0.72141801    -0.03900
C1114       C  0.92296008  0.21259344  0.72023390     0.03100
C1115       C  0.93620416  0.22870038  0.78730095     0.10000
C1116       C  0.88402852  0.21655967  0.78846692     0.35900
C1117       C  0.93681772  0.21054231  0.69747582     0.39300
C1118       C  0.93815272  0.25349224  0.79492832    -0.04300
C1119       C  0.95524623  0.26019391  0.81345255     0.02900
C1120       C  0.97010729  0.24205351  0.82475450    -0.03900
C1121       C  0.96667249  0.21701586  0.81852683    -0.00100
C1122       C  0.94981580  0.21036399  0.79977196    -0.02700
C1123       C  0.92326530  0.27217118  0.78299722     0.36600
C1124       C  0.98158241  0.19827768  0.83037383     0.40200
C1125       C  0.95852449  0.28590976  0.82006043     0.39300
C1126       C  0.94733398  0.18477310  0.79237231     0.36300
C1127       C  0.96035120  0.22983670  0.74041177     0.37000
C1128       C  0.85964920  0.19812739  0.74535947     0.40200
N1129       N  0.96132708  0.30640292  0.82533356    -0.37900
N1130       N  0.91128927  0.28705840  0.77354010    -0.39400
N1131       N  0.99349104  0.18333518  0.83983167    -0.37200
N1132       N  0.94531715  0.16439281  0.78635237    -0.39600
N1133       N  0.87344733  0.21803229  0.80690537    -0.39400
N1134       N  0.83919729  0.19195771  0.74642190    -0.37000
N1135       N  0.94793325  0.20882584  0.67937121    -0.38000
N1136       N  0.98067584  0.23644521  0.73960666    -0.39700
C1137       C  0.93283524  0.23968979  0.49353216    -0.04600
C1138       C  0.94091840  0.21778046  0.50498193     0.09500
C1139       C  0.96068321  0.20439872  0.49458238    -0.02000
C1140       C  0.97330127  0.21364190  0.47385970    -0.00300
C1141       C  0.96606363  0.23620599  0.46312610    -0.03900
C1142       C  0.94530202  0.24879805  0.47257149     0.03100
C1143       C  0.92942974  0.20913609  0.52858522     0.10000
C1144       C  0.96869093  0.18159977  0.50593467     0.35900
C1145       C  0.93771216  0.27186987  0.46152144     0.39300
C1146       C  0.90734166  0.19534385  0.52815085    -0.04300
C1147       C  0.89749887  0.18572219  0.55019261     0.02900
C1148       C  0.90978720  0.18968293  0.57294594    -0.03900
C1149       C  0.93158917  0.20408642  0.57341475    -0.00100
C1150       C  0.94132302  0.21378325  0.55133037    -0.02700
C1151       C  0.89481328  0.19098556  0.50490694     0.36600
C1152       C  0.94450985  0.20828206  0.59648524     0.40200
C1153       C  0.87424123  0.17238099  0.54948009     0.39300
C1154       C  0.96373709  0.22846285  0.55192097     0.36300
C1155       C  0.91249763  0.25347172  0.50409146     0.37000
C1156       C  0.99480835  0.20074838  0.46449583     0.40200
N1157       N  0.85566110  0.16179940  0.54894735    -0.37900
N1158       N  0.88482588  0.18761103  0.48633509    -0.39400
N1159       N  0.95482418  0.21161655  0.61489056    -0.37200
N1160       N  0.98161443  0.24018392  0.55234894    -0.39600
N1161       N  0.97505069  0.16346541  0.51511901    -0.39400
N1162       N  0.01205485  0.19056856  0.45709712    -0.37000
N1163       N  0.93169844  0.29026669  0.45262890    -0.38000
N1164       N  0.89630489  0.26448760  0.51258704    -0.39700
C1165       C  0.95839652  0.07145647  0.69985293    -0.04600
C1166       C  0.98140580  0.08098858  0.69218803     0.09500
C1167       C  0.98206302  0.10067809  0.67537744    -0.02000
C1168       C  0.95985505  0.11133426  0.66680383    -0.00300
C1169       C  0.93663654  0.10218076  0.67485375    -0.03900
C1170       C  0.93611415  0.08197432  0.69126534     0.03100
C1171       C  0.00494789  0.07059387  0.70242746     0.10000
C1172       C  0.00572384  0.11009658  0.66710931     0.35900
C1173       C  0.91268605  0.07154319  0.69893722     0.39300
C1174       C  0.01702386  0.05099020  0.69031238    -0.04300
C1175       C  0.03771615  0.03960297  0.70130756     0.02900
C1176       C  0.04594739  0.04718548  0.72485151    -0.03900
C1177       C  0.03472097  0.06769055  0.73631265    -0.00100
C1178       C  0.01444111  0.07953069  0.72499836    -0.02700
C1179       C  0.00718229  0.04155229  0.66728899     0.36600
C1180       C  0.04311951  0.07562263  0.76043692     0.40200
C1181       C  0.04965979  0.01898849  0.68915220     0.39300
C1182       C  0.00246687  0.10013652  0.73712723     0.36300
C1183       C  0.95773543  0.05069471  0.71659680     0.37000
C1184       C  0.96111299  0.13242212  0.65047604     0.40200
N1185       N  0.05931742  0.00258133  0.67951715    -0.37900
N1186       N  0.99918913  0.03387337  0.64902927    -0.39400
N1187       N  0.04977161  0.08192842  0.77972052    -0.37200
N1188       N  0.99279916  0.11656852  0.74671326    -0.39600
N1189       N  0.02463543  0.11750930  0.66050422    -0.39400
N1190       N  0.96216686  0.14923527  0.63746001    -0.37000
N1191       N  0.89402054  0.06317475  0.70508649    -0.38000
N1192       N  0.95728908  0.03409546  0.72991072    -0.39700
C1193       C  0.80016980  0.30714552  0.56269848    -0.04600
C1194       C  0.78288862  0.29402708  0.57707712     0.09500
C1195       C  0.75777808  0.30100930  0.57657488    -0.02000
C1196       C  0.74962721  0.31931893  0.56003566    -0.00300
C1197       C  0.76659100  0.33088312  0.54406031    -0.03900
C1198       C  0.79202687  0.32551039  0.54620183     0.03100
C1199       C  0.79074976  0.27142586  0.59089567     0.10000
C1200       C  0.74026002  0.28867636  0.59251266     0.35900
C1201       C  0.80960710  0.33785017  0.53031634     0.39300
C1202       C  0.80225260  0.27341160  0.61409693    -0.04300
C1203       C  0.81088705  0.25210523  0.62626875     0.02900
C1204       C  0.80867287  0.22850708  0.61502084    -0.03900
C1205       C  0.79568577  0.22651598  0.59237759    -0.00100
C1206       C  0.78694201  0.24789019  0.58037831    -0.02700
C1207       C  0.80559668  0.29752403  0.62521916     0.36600
C1208       C  0.79197698  0.20268547  0.58075657     0.40200
C1209       C  0.82167422  0.25458285  0.65064627     0.39300
C1210       C  0.77470037  0.24580350  0.55665096     0.36300
C1211       C  0.82619874  0.30098020  0.56412110     0.37000
C1212       C  0.72362538  0.32559596  0.55869335     0.40200
N1213       N  0.83021311  0.25656334  0.67011243    -0.37900
N1214       N  0.80836217  0.31678344  0.63401743    -0.39400
N1215       N  0.78881075  0.18370535  0.57148364    -0.37200
N1216       N  0.76494557  0.24425445  0.53772287    -0.39600
N1217       N  0.72637287  0.27879403  0.60530961    -0.39400
N1218       N  0.70287858  0.33064179  0.55763133    -0.37000
N1219       N  0.82354824  0.34775420  0.51759229    -0.38000
N1220       N  0.84698583  0.29613369  0.56534921    -0.39700
C1221       C  0.80053521  0.05310785  0.57551724    -0.04600
C1222       C  0.81146969  0.03143204  0.58486308     0.09500
C1223       C  0.82946921  0.03316343  0.60352247    -0.02000
C1224       C  0.83727960  0.05646326  0.61215085    -0.00300
C1225       C  0.82730502  0.07837815  0.60193283    -0.03900
C1226       C  0.80836679  0.07650840  0.58402070     0.03100
C1227       C  0.80499407  0.00688626  0.57390224     0.10000
C1228       C  0.83998181  0.01084436  0.61376089     0.35900
C1229       C  0.79741415  0.09858180  0.57374131     0.39300
C1230       C  0.81882570  0.99773160  0.55387689    -0.04300
C1231       C  0.81057184  0.97677693  0.54084326     0.02900
C1232       C  0.78871151  0.96457599  0.54807537    -0.03900
C1233       C  0.77636724  0.97218934  0.56965864    -0.00100
C1234       C  0.78437925  0.99346583  0.58246032    -0.02700
C1235       C  0.84101908  0.01051317  0.54611087     0.36600
C1236       C  0.75467578  0.95885533  0.57785009     0.40200
C1237       C  0.82369969  0.96858063  0.51904566     0.39300
C1238       C  0.77090921  0.00215111  0.60382294     0.36300
C1239       C  0.78140867  0.05123670  0.55684571     0.37000
C1240       C  0.85505907  0.05773056  0.63217669     0.40200
N1241       N  0.83406661  0.96204687  0.50159687    -0.37900
N1242       N  0.85878985  0.02068350  0.54004397    -0.39400
N1243       N  0.73745269  0.94806725  0.58439962    -0.37200
N1244       N  0.76017931  0.00912422  0.62088090    -0.39600
N1245       N  0.84828935  0.99299177  0.62189932    -0.39400
N1246       N  0.86918563  0.05871955  0.64818270    -0.37000
N1247       N  0.78860342  0.11618087  0.56556968    -0.38000
N1248       N  0.76610451  0.04963159  0.54200758    -0.39700
C1249       C  0.74539889  0.11998355  0.71051228    -0.04600
C1250       C  0.74653809  0.09508894  0.71765374     0.09500
C1251       C  0.76971823  0.08322658  0.71897057    -0.02000
C1252       C  0.79136595  0.09542489  0.71100587    -0.00300
C1253       C  0.79003596  0.11986522  0.70198730    -0.03900
C1254       C  0.76707400  0.13246588  0.70315324     0.03100
C1255       C  0.72332610  0.08064451  0.72225155     0.10000
C1256       C  0.77105677  0.05803090  0.72773969     0.35900
C1257       C  0.76562791  0.15833583  0.69662162     0.39300
C1258       C  0.71421011  0.06455816  0.70383872    -0.04300
C1259       C  0.69478268  0.04807090  0.70919268     0.02900
C1260       C  0.68432154  0.04757020  0.73297184    -0.03900
C1261       C  0.69202017  0.06504919  0.75072493    -0.00100
C1262       C  0.71147493  0.08158413  0.74536910    -0.02700
C1263       C  0.72558766  0.06428932  0.67967692     0.36600
C1264       C  0.68081142  0.06503029  0.77494498     0.40200
C1265       C  0.68630771  0.03073281  0.69061614     0.39300
C1266       C  0.72006919  0.09880064  0.76396647     0.36300
C1267       C  0.72172130  0.13245655  0.70983339     0.37000
C1268       C  0.81458495  0.08211304  0.71072027     0.40200
N1269       N  0.67950546  0.01688582  0.67582796    -0.37900
N1270       N  0.73474929  0.06408247  0.66044304    -0.39400
N1271       N  0.67179266  0.06495129  0.79424426    -0.37200
N1272       N  0.72691234  0.11262062  0.77875924    -0.39600
N1273       N  0.77198661  0.03794407  0.73476664    -0.39400
N1274       N  0.83305397  0.07138317  0.71054002    -0.37000
N1275       N  0.76449420  0.17897713  0.69145312    -0.38000
N1276       N  0.70281309  0.14238144  0.70926794    -0.39700
C1277       C  0.77525120  0.70152606  0.92118662    -0.04600
C1278       C  0.79545226  0.71732568  0.92602045     0.09500
C1279       C  0.80990866  0.71370700  0.94736595    -0.02000
C1280       C  0.80329550  0.69542064  0.96451104    -0.00300
C1281       C  0.78188651  0.68091685  0.96069058    -0.03900
C1282       C  0.76836014  0.68345754  0.93856927     0.03100
C1283       C  0.80033495  0.73924341  0.91000980     0.10000
C1284       C  0.83081785  0.72976330  0.95233213     0.35900
C1285       C  0.74642893  0.66861838  0.93446582     0.39300
C1286       C  0.78664929  0.76109051  0.91359319    -0.04300
C1287       C  0.79325875  0.78289617  0.90111221     0.02900
C1288       C  0.81360620  0.78303386  0.88482020    -0.03900
C1289       C  0.82657384  0.76073704  0.88037964    -0.00100
C1290       C  0.81990194  0.73896764  0.89292981    -0.02700
C1291       C  0.76613256  0.76123893  0.93074017     0.36600
C1292       C  0.84781074  0.76038514  0.86409444     0.40200
C1293       C  0.77907643  0.80520853  0.90510301     0.39300
C1294       C  0.83364118  0.71638027  0.88888864     0.36300
C1295       C  0.76097434  0.70463865  0.89880340     0.37000
C1296       C  0.81794782  0.69218618  0.98668176     0.40200
N1297       N  0.76777741  0.82301944  0.90830543    -0.37900
N1298       N  0.74974181  0.76121618  0.94438954    -0.39400
N1299       N  0.86477050  0.76008559  0.85114476    -0.37200
N1300       N  0.84460689  0.69835721  0.88571378    -0.39600
N1301       N  0.84741908  0.74266865  0.95625761    -0.39400
N1302       N  0.82957026  0.68961917  0.00440037    -0.37000
N1303       N  0.72889839  0.65678318  0.93128025    -0.38000
N1304       N  0.74959929  0.70718008  0.88092526    -0.39700
C1305       C  0.55154904  0.93527619  0.20385781    -0.04600
C1306       C  0.53154630  0.93532539  0.18706151     0.09500
C1307       C  0.53453716  0.92435732  0.16366464    -0.02000
C1308       C  0.55718308  0.91317753  0.15723312    -0.00300
C1309       C  0.57665080  0.91156775  0.17463825    -0.03900
C1310       C  0.57378233  0.92301113  0.19793238     0.03100
C1311       C  0.50738292  0.94693625  0.19423276     0.10000
C1312       C  0.51414394  0.92426038  0.14629150     0.35900
C1313       C  0.59320320  0.92134449  0.21631938     0.39300
C1314       C  0.50018525  0.96978045  0.18409094    -0.04300
C1315       C  0.47902085  0.98203359  0.19307186     0.02900
C1316       C  0.46524136  0.97186205  0.21264231    -0.03900
C1317       C  0.47141706  0.94826348  0.22157727    -0.00100
C1318       C  0.49232039  0.93576757  0.21229974    -0.02700
C1319       C  0.51532063  0.98132221  0.16536646     0.36600
C1320       C  0.45717428  0.93757862  0.24146033     0.40200
C1321       C  0.47192987  0.00568232  0.18291240     0.39300
C1322       C  0.49905214  0.91189293  0.22217286     0.36300
C1323       C  0.54915519  0.94779620  0.22738839     0.37000
C1324       C  0.56072478  0.90415073  0.13231705     0.40200
N1325       N  0.46619970  0.02450285  0.17474674    -0.37900
N1326       N  0.52741464  0.99046201  0.15039833    -0.39400
N1327       N  0.44576837  0.92913719  0.25734328    -0.37200
N1328       N  0.50457210  0.89292174  0.23013324    -0.39600
N1329       N  0.49787978  0.92420441  0.13241977    -0.39400
N1330       N  0.56370241  0.89724241  0.11236471    -0.37000
N1331       N  0.60863497  0.91997430  0.23104234    -0.38000
N1332       N  0.54720488  0.95781054  0.24612849    -0.39700
C1333       C  0.74847651  0.92407387  0.22138242    -0.04600
C1334       C  0.76582850  0.90835718  0.23260326     0.09500
C1335       C  0.76106558  0.88289652  0.23384126    -0.02000
C1336       C  0.73923151  0.87300646  0.22330132    -0.00300
C1337       C  0.72210018  0.88860557  0.21095139    -0.03900
C1338       C  0.72718126  0.91432432  0.20998428     0.03100
C1339       C  0.78976428  0.91909103  0.24144694     0.10000
C1340       C  0.77885366  0.86689662  0.24576484     0.35900
C1341       C  0.71169139  0.93090111  0.19578355     0.39300
C1342       C  0.79177766  0.92843133  0.26559846    -0.04300
C1343       C  0.81096225  0.94502720  0.27159981     0.02900
C1344       C  0.82766940  0.95298470  0.25321240    -0.03900
C1345       C  0.82741598  0.94123266  0.22997244    -0.00100
C1346       C  0.80860202  0.92409651  0.22422306    -0.02700
C1347       C  0.77308630  0.92236804  0.28368724     0.36600
C1348       C  0.84514222  0.94824310  0.21128684     0.40200
C1349       C  0.81267567  0.95512921  0.29631892     0.39300
C1350       C  0.80745532  0.91291802  0.19995766     0.36300
C1351       C  0.75288812  0.95049846  0.22121548     0.37000
C1352       C  0.73479621  0.84670819  0.22509759     0.40200
N1353       N  0.81408888  0.96325180  0.31600150    -0.37900
N1354       N  0.75814651  0.91757915  0.29812175    -0.39400
N1355       N  0.85929271  0.95379482  0.19634754    -0.37200
N1356       N  0.80641806  0.90387996  0.18065518    -0.39600
N1357       N  0.79305817  0.85415987  0.25531084    -0.39400
N1358       N  0.73147322  0.82568230  0.22643565    -0.37000
N1359       N  0.69958278  0.94419860  0.18432046    -0.38000
N1360       N  0.75644236  0.97153182  0.22127919    -0.39700
C1361       C  0.73870783  0.01277654  0.07706988    -0.04600
C1362       C  0.71712617  0.00007662  0.06951773     0.09500
C1363       C  0.70418836  0.00824711  0.04846058    -0.02000
C1364       C  0.71333655  0.02810935  0.03447169    -0.00300
C1365       C  0.73596933  0.03949029  0.04083432    -0.03900
C1366       C  0.74830143  0.03219265  0.06256258     0.03100
C1367       C  0.70828113  0.97755009  0.08303265     0.10000
C1368       C  0.68197384  0.99545998  0.04055303     0.35900
C1369       C  0.77143102  0.04392474  0.06932498     0.39300
C1370       C  0.68682880  0.97867376  0.09767145    -0.04300
C1371       C  0.67702242  0.95708032  0.10837102     0.02900
C1372       C  0.68916111  0.93403866  0.10543544    -0.03900
C1373       C  0.71086077  0.93305491  0.09085105    -0.00100
C1374       C  0.72021023  0.95464954  0.07961680    -0.02700
C1375       C  0.67464971  0.00218150  0.10148755     0.36600
C1376       C  0.72390197  0.90995779  0.08751079     0.40200
C1377       C  0.65362411  0.95858132  0.12131981     0.39300
C1378       C  0.74200708  0.95328584  0.06416453     0.36300
C1379       C  0.75130061  0.00545512  0.09945895     0.37000
C1380       C  0.69985905  0.03636847  0.01292071     0.40200
N1381       N  0.63489047  0.95976710  0.13149971    -0.37900
N1382       N  0.66495391  0.02094432  0.10447786    -0.39400
N1383       N  0.73431771  0.89155101  0.08470919    -0.37200
N1384       N  0.75940156  0.95226966  0.05184450    -0.39600
N1385       N  0.66427360  0.98518672  0.03430840    -0.39400
N1386       N  0.68899515  0.04305645  0.99583619    -0.37000
N1387       N  0.78990738  0.05330622  0.07466839    -0.38000
N1388       N  0.76130474  0.99962897  0.11736985    -0.39700
C1389       C  0.61560028  0.79970923  0.26992500    -0.04600
C1390       C  0.58981184  0.79647107  0.27068443     0.09500
C1391       C  0.57600318  0.79899572  0.24882092    -0.02000
C1392       C  0.58766542  0.80543395  0.22641887    -0.00300
C1393       C  0.61376497  0.80934260  0.22535402    -0.03900
C1394       C  0.62761448  0.80568142  0.24752532     0.03100
C1395       C  0.57691381  0.78960941  0.29428486     0.10000
C1396       C  0.54947509  0.79490898  0.24948030     0.35900
C1397       C  0.65432995  0.80798024  0.24788471     0.39300
C1398       C  0.56408346  0.80762815  0.30807850    -0.04300
C1399       C  0.54817292  0.80052243  0.32747363     0.02900
C1400       C  0.54531667  0.77537737  0.33350608    -0.03900
C1401       C  0.55968306  0.75759350  0.32097192    -0.00100
C1402       C  0.57539800  0.76467274  0.30146558    -0.02700
C1403       C  0.56655202  0.83340452  0.30161047     0.36600
C1404       C  0.55707541  0.73175492  0.32719700     0.40200
C1405       C  0.53347812  0.81889650  0.34016375     0.39300
C1406       C  0.58908877  0.74614231  0.28791107     0.36300
C1407       C  0.62976802  0.79722678  0.29250142     0.37000
C1408       C  0.57225566  0.80783654  0.20465638     0.40200
N1409       N  0.52165800  0.83351991  0.35025501    -0.37900
N1410       N  0.56860994  0.85397467  0.29644300    -0.39400
N1411       N  0.55489747  0.71114679  0.33215507    -0.37200
N1412       N  0.60006843  0.73140630  0.27706753    -0.39600
N1413       N  0.52835020  0.79162069  0.25012556    -0.39400
N1414       N  0.55975238  0.80978141  0.18745105    -0.37000
N1415       N  0.67565657  0.80962724  0.24839134    -0.38000
N1416       N  0.64102081  0.79532622  0.31053957    -0.39700
C1417       C  0.73265200  0.76686902  0.08648675    -0.04600
C1418       C  0.72333412  0.74324525  0.09205001     0.09500
C1419       C  0.70687230  0.74043689  0.11191075    -0.02000
C1420       C  0.69831015  0.76129750  0.12502105    -0.00300
C1421       C  0.70656803  0.78531766  0.11862892    -0.03900
C1422       C  0.72469840  0.78771370  0.09996676     0.03100
C1423       C  0.72991785  0.72152569  0.07614454     0.10000
C1424       C  0.69841067  0.71595917  0.11850523     0.35900
C1425       C  0.73563514  0.81156956  0.09485840     0.39300
C1426       C  0.75279013  0.70935981  0.07910856    -0.04300
C1427       C  0.75977973  0.69041747  0.06260923     0.02900
C1428       C  0.74384562  0.68339524  0.04318738    -0.03900
C1429       C  0.72044133  0.69468053  0.04102646    -0.00100
C1430       C  0.71352470  0.71371753  0.05738393    -0.02700
C1431       C  0.76937462  0.71684958  0.09875064     0.36600
C1432       C  0.70384632  0.68723499  0.02133971     0.40200
C1433       C  0.78380711  0.67884627  0.06491317     0.39300
C1434       C  0.68989763  0.72596179  0.05434683     0.36300
C1435       C  0.75004025  0.76977858  0.06640927     0.37000
C1436       C  0.68016559  0.75783165  0.14432878     0.40200
N1437       N  0.80297329  0.66957199  0.06667592    -0.37900
N1438       N  0.78258878  0.72289022  0.11443404    -0.39400
N1439       N  0.69067309  0.68122470  0.00560850    -0.37200
N1440       N  0.67106797  0.73576800  0.05194689    -0.39600
N1441       N  0.69178559  0.69638233  0.12372729    -0.39400
N1442       N  0.66573741  0.75492931  0.15975488    -0.37000
N1443       N  0.74449687  0.83056182  0.09089378    -0.38000
N1444       N  0.76389351  0.77206408  0.05037287    -0.39700
C1445       C  0.27189705  0.57376261  0.21533033    -0.04600
C1446       C  0.25230708  0.58867754  0.22377605     0.09500
C1447       C  0.25594485  0.61433249  0.22578150    -0.02000
C1448       C  0.27837415  0.62516951  0.21787469    -0.00300
C1449       C  0.29710876  0.61056010  0.20665746    -0.03900
C1450       C  0.29388731  0.58449881  0.20631461     0.03100
C1451       C  0.22762900  0.57707566  0.22934087     0.10000
C1452       C  0.23637646  0.62969064  0.23562385     0.35900
C1453       C  0.31247912  0.56835873  0.19578205     0.39300
C1454       C  0.21973714  0.57368778  0.25387695    -0.04300
C1455       C  0.19861926  0.55918338  0.25890883     0.02900
C1456       C  0.18567249  0.54732888  0.23955389    -0.03900
C1457       C  0.19252760  0.55215071  0.21497715    -0.00100
C1458       C  0.21317881  0.56725997  0.20988640    -0.02700
C1459       C  0.23421468  0.58379726  0.27401475     0.36600
C1460       C  0.17951168  0.53998593  0.19498082     0.40200
C1461       C  0.19096354  0.55519301  0.28415767     0.39300
C1462       C  0.22047440  0.57161479  0.18457957     0.36300
C1463       C  0.26917649  0.54713186  0.21560739     0.37000
C1464       C  0.28201666  0.65141238  0.22165420     0.40200
N1465       N  0.18476195  0.55200572  0.30427606    -0.37900
N1466       N  0.24576583  0.59189144  0.29008113    -0.39400
N1467       N  0.16921588  0.53017268  0.17902387    -0.37200
N1468       N  0.22647338  0.57506817  0.16444319    -0.39600
N1469       N  0.22084081  0.64194801  0.24362576    -0.39400
N1470       N  0.28490917  0.67233246  0.22474864    -0.37000
N1471       N  0.32718088  0.55535815  0.18737116    -0.38000
N1472       N  0.26697620  0.52592092  0.21593235    -0.39700
C1473       C  0.33903265  0.52692343  0.09486988    -0.04600
C1474       C  0.31872982  0.52695662  0.07865516     0.09500
C1475       C  0.30787077  0.54954654  0.07174871    -0.02000
C1476       C  0.31609339  0.57190906  0.08238156    -0.00300
C1477       C  0.33599342  0.57195218  0.09945687    -0.03900
C1478       C  0.34816613  0.54928634  0.10457717     0.03100
C1479       C  0.30842697  0.50318771  0.06897139     0.10000
C1480       C  0.28803333  0.54966174  0.05370950     0.35900
C1481       C  0.37066615  0.54877650  0.11919848     0.39300
C1482       C  0.28579129  0.49412098  0.07817107    -0.04300
C1483       C  0.27422453  0.47376302  0.06676768     0.02900
C1484       C  0.28557909  0.46196059  0.04656334    -0.03900
C1485       C  0.30914450  0.46978766  0.03866510    -0.00100
C1486       C  0.32048260  0.49047116  0.04972519    -0.02700
C1487       C  0.27403195  0.50634970  0.09883564     0.36600
C1488       C  0.32090829  0.45751931  0.01802227     0.40200
C1489       C  0.24995123  0.46583659  0.07482173     0.39300
C1490       C  0.34396035  0.49941364  0.04051146     0.36300
C1491       C  0.35028748  0.50371862  0.10189635     0.37000
C1492       C  0.30343105  0.59458204  0.07608858     0.40200
N1493       N  0.23052558  0.45957668  0.08113347    -0.37900
N1494       N  0.26473131  0.51616862  0.11533003    -0.39400
N1495       N  0.33018331  0.44768138  0.00152584    -0.37200
N1496       N  0.36271857  0.50653951  0.03320244    -0.39600
N1497       N  0.27228300  0.54965281  0.03925865    -0.39400
N1498       N  0.29325752  0.61259660  0.07093223    -0.37000
N1499       N  0.38867794  0.54834453  0.13072763    -0.38000
N1500       N  0.35920904  0.48519624  0.10751372    -0.39700
C1501       C  0.28705330  0.74099924  0.08453420    -0.04600
C1502       C  0.29334207  0.76420196  0.09452378     0.09500
C1503       C  0.30694146  0.76539487  0.11663092    -0.02000
C1504       C  0.31552629  0.74355772  0.12796877    -0.00300
C1505       C  0.31023058  0.72007398  0.11739363    -0.03900
C1506       C  0.29517078  0.71907982  0.09597622     0.03100
C1507       C  0.28748816  0.78722303  0.08036990     0.10000
C1508       C  0.31273766  0.78927898  0.12726304     0.35900
C1509       C  0.28785121  0.69552813  0.08554863     0.39300
C1510       C  0.26421703  0.79877249  0.08259005    -0.04300
C1511       C  0.25742924  0.81781701  0.06618117     0.02900
C1512       C  0.27415408  0.82583859  0.04794912    -0.03900
C1513       C  0.29815317  0.81567560  0.04715971    -0.00100
C1514       C  0.30469175  0.79625101  0.06308750    -0.02700
C1515       C  0.24699768  0.79041551  0.10118122     0.36600
C1516       C  0.31572444  0.82444826  0.02905150     0.40200
C1517       C  0.23279771  0.82824529  0.06711586     0.39300
C1518       C  0.32869067  0.78459272  0.06082042     0.36300
C1519       C  0.27282049  0.73977695  0.06188159     0.37000
C1520       C  0.33101548  0.74567613  0.14972492     0.40200
N1521       N  0.21312163  0.83655348  0.06775542    -0.37900
N1522       N  0.23330484  0.78380348  0.11611143    -0.39400
N1523       N  0.32974301  0.83153017  0.01464777    -0.37200
N1524       N  0.34776123  0.77514523  0.05897927    -0.39600
N1525       N  0.31729696  0.80835590  0.13571885    -0.39400
N1526       N  0.34338411  0.74749502  0.16705601    -0.37000
N1527       N  0.28198427  0.67677501  0.07716354    -0.38000
N1528       N  0.26153840  0.73893693  0.04377023    -0.39700
C1529       C  0.39898257  0.70170261  0.26863811    -0.04600
C1530       C  0.41871591  0.71862253  0.26759697     0.09500
C1531       C  0.42643581  0.72780615  0.24455792    -0.02000
C1532       C  0.41522426  0.71927240  0.22260412    -0.00300
C1533       C  0.39647425  0.70106673  0.22345642    -0.03900
C1534       C  0.38805440  0.69272173  0.24674669     0.03100
C1535       C  0.43235571  0.72566595  0.29066211     0.10000
C1536       C  0.44628217  0.74575788  0.24343882     0.35900
C1537       C  0.36901647  0.67392672  0.24841840     0.39300
C1538       C  0.45002189  0.70940303  0.30073741    -0.04300
C1539       C  0.46437733  0.71668775  0.32122333     0.02900
C1540       C  0.46162717  0.74049235  0.33142680    -0.03900
C1541       C  0.44298791  0.75620209  0.32226247    -0.00100
C1542       C  0.42823038  0.74870992  0.30205912    -0.02700
C1543       C  0.45420417  0.68558259  0.28928904     0.36600
C1544       C  0.43966123  0.78041835  0.33306205     0.40200
C1545       C  0.48281195  0.70008900  0.33122184     0.39300
C1546       C  0.40924478  0.76490927  0.29248690     0.36300
C1547       C  0.39021574  0.69325008  0.29238520     0.37000
C1548       C  0.42279369  0.72955390  0.19916542     0.40200
N1549       N  0.49745450  0.68685316  0.33931860    -0.37900
N1550       N  0.45754446  0.66661538  0.28008948    -0.39400
N1551       N  0.43695348  0.79974096  0.34170776    -0.37200
N1552       N  0.39404732  0.77773168  0.28474251    -0.39600
N1553       N  0.46206959  0.76013064  0.24253668    -0.39400
N1554       N  0.42873604  0.73777444  0.18045045    -0.37000
N1555       N  0.35384242  0.65894347  0.24980638    -0.38000
N1556       N  0.38323634  0.68660645  0.31136488    -0.39700
C1557       C  0.56709082  0.80800670  0.98895163    -0.04600
C1558       C  0.57842543  0.79234912  0.00644087     0.09500
C1559       C  0.57976552  0.76680459  0.00143468    -0.02000
C1560       C  0.56884529  0.75704343  0.97991203    -0.00300
C1561       C  0.55433127  0.77216528  0.96446207    -0.03900
C1562       C  0.55444758  0.79788584  0.96841798     0.03100
C1563       C  0.58858297  0.80257402  0.03025545     0.10000
C1564       C  0.59117268  0.75029029  0.01906996     0.35900
C1565       C  0.54039716  0.81375115  0.95219163     0.39300
C1566       C  0.57251827  0.81195130  0.04858481    -0.04300
C1567       C  0.58211789  0.82165556  0.07091049     0.02900
C1568       C  0.60785671  0.82122107  0.07553934    -0.03900
C1569       C  0.62369163  0.81046309  0.05768858    -0.00100
C1570       C  0.61423242  0.80206755  0.03493605    -0.02700
C1571       C  0.54601749  0.81146572  0.04449787     0.36600
C1572       C  0.64977271  0.80699180  0.06299509     0.40200
C1573       C  0.56547825  0.83260730  0.08872326     0.39300
C1574       C  0.63104527  0.79300655  0.01619612     0.36300
C1575       C  0.56788267  0.83447761  0.99249432     0.37000
C1576       C  0.57186105  0.73116006  0.97395930     0.40200
N1577       N  0.55205792  0.84129512  0.10285001    -0.37900
N1578       N  0.52488690  0.81105975  0.04116674    -0.39400
N1579       N  0.67053179  0.80394461  0.06712967    -0.37200
N1580       N  0.64446504  0.78570071  0.00131237    -0.39600
N1581       N  0.60024059  0.73711767  0.03315106    -0.39400
N1582       N  0.57475663  0.71060029  0.96908107    -0.37000
N1583       N  0.52915694  0.82637785  0.93920624    -0.38000
N1584       N  0.56862723  0.85560811  0.99533129    -0.39700
C1585       C  0.44247677  0.72410997  0.99438043    -0.04600
C1586       C  0.45217472  0.70439986  0.00830729     0.09500
C1587       C  0.47436484  0.69299867  0.00091000    -0.02000
C1588       C  0.48726533  0.70183579  0.98027881    -0.00300
C1589       C  0.47861291  0.72274745  0.96746930    -0.03900
C1590       C  0.45575138  0.73335261  0.97403529     0.03100
C1591       C  0.43950045  0.69592631  0.03122180     0.10000
C1592       C  0.48460920  0.67300870  0.01537240     0.35900
C1593       C  0.44657061  0.75452410  0.96063473     0.39300
C1594       C  0.42622785  0.67359666  0.03116976    -0.04300
C1595       C  0.41538323  0.66486811  0.05303470     0.02900
C1596       C  0.41676278  0.67901376  0.07507142    -0.03900
C1597       C  0.43040830  0.70132046  0.07506403    -0.00100
C1598       C  0.44195040  0.70953337  0.05328209    -0.02700
C1599       C  0.42381351  0.65954934  0.00849238     0.36600
C1600       C  0.43216439  0.71628166  0.09718161     0.40200
C1601       C  0.40358902  0.64080782  0.05284618     0.39300
C1602       C  0.45657349  0.73196393  0.05353664     0.36300
C1603       C  0.41938528  0.73549750  0.00166806     0.37000
C1604       C  0.50994604  0.68985942  0.97263954     0.40200
N1605       N  0.39427902  0.62159245  0.05265889    -0.37900
N1606       N  0.42194117  0.64838049  0.99039438    -0.39400
N1607       N  0.43363821  0.72823230  0.11481454    -0.37200
N1608       N  0.46828770  0.74981994  0.05367514    -0.39600
N1609       N  0.49278019  0.65716448  0.02703265    -0.39400
N1610       N  0.52790764  0.68007813  0.96652476    -0.37000
N1611       N  0.43926789  0.77139069  0.94986937    -0.38000
N1612       N  0.40102249  0.74464335  0.00760752    -0.39700
C1613       C  0.46455155  0.56930246  0.20617896    -0.04600
C1614       C  0.48666242  0.57179435  0.19267290     0.09500
C1615       C  0.48671659  0.58573746  0.17085724    -0.02000
C1616       C  0.46499245  0.59785156  0.16296679    -0.00300
C1617       C  0.44281449  0.59604515  0.17686479    -0.03900
C1618       C  0.44271210  0.58120480  0.19830326     0.03100
C1619       C  0.50989756  0.55976368  0.20176563     0.10000
C1620       C  0.50930379  0.58773367  0.15665155     0.35900
C1621       C  0.42046196  0.57882211  0.21295347     0.39300
C1622       C  0.51685289  0.53635170  0.19280642    -0.04300
C1623       C  0.53662262  0.52354843  0.20387651     0.02900
C1624       C  0.54907628  0.53375460  0.22441626    -0.03900
C1625       C  0.54345570  0.55797665  0.23205788    -0.00100
C1626       C  0.52402445  0.57103370  0.22060680    -0.02700
C1627       C  0.50287908  0.52494483  0.17300817     0.36600
C1628       C  0.55673606  0.56887801  0.25259711     0.40200
C1629       C  0.54371716  0.49944808  0.19470331     0.39300
C1630       C  0.51784989  0.59570539  0.22882156     0.36300
C1631       C  0.46445291  0.55468786  0.22850959     0.37000
C1632       C  0.46557434  0.61185209  0.14025034     0.40200
N1633       N  0.54953918  0.48029911  0.18731208    -0.37900
N1634       N  0.49169479  0.51580331  0.15724804    -0.39400
N1635       N  0.56738920  0.57753637  0.26898217    -0.37200
N1636       N  0.51288364  0.61541969  0.23529233    -0.39600
N1637       N  0.52734723  0.58920609  0.14534727    -0.39400
N1638       N  0.46616091  0.62305969  0.12216426    -0.37000
N1639       N  0.40271422  0.57682641  0.22463665    -0.38000
N1640       N  0.46450170  0.54308090  0.24634651    -0.39700
C1641       C  0.32660745  0.47911457  0.41309464    -0.04600
C1642       C  0.30992777  0.47938754  0.43291547     0.09500
C1643       C  0.30246402  0.45698264  0.44377691    -0.02000
C1644       C  0.31176416  0.43432536  0.43493095    -0.00300
C1645       C  0.32842123  0.43393372  0.41490983    -0.03900
C1646       C  0.33572205  0.45654431  0.40398322     0.03100
C1647       C  0.30049296  0.50334900  0.44276754     0.10000
C1648       C  0.28531577  0.45734646  0.46424388     0.35900
C1649       C  0.35211756  0.45673988  0.38285325     0.39300
C1650       C  0.27742610  0.51255311  0.43488513    -0.04300
C1651       C  0.26716972  0.53347233  0.44644099     0.02900
C1652       C  0.27995625  0.54520408  0.46590873    -0.03900
C1653       C  0.30376045  0.53697605  0.47261444    -0.00100
C1654       C  0.31410265  0.51621119  0.46090478    -0.02700
C1655       C  0.26390916  0.49991559  0.41551425     0.36600
C1656       C  0.31675097  0.54877022  0.49287270     0.40200
C1657       C  0.24286104  0.54217075  0.43929675     0.39300
C1658       C  0.33833213  0.50743639  0.46817841     0.36300
C1659       C  0.33434221  0.50218680  0.40208432     0.37000
C1660       C  0.30491657  0.41157140  0.44710254     0.40200
N1661       N  0.22345973  0.54913905  0.43365398    -0.37900
N1662       N  0.25316576  0.48979048  0.40004938    -0.39400
N1663       N  0.32693702  0.55814965  0.50915670    -0.37200
N1664       N  0.35771081  0.50046318  0.47388206    -0.39600
N1665       N  0.27157977  0.45770705  0.48053008    -0.39400
N1666       N  0.29952212  0.39344567  0.45690393    -0.37000
N1667       N  0.36523255  0.45691901  0.36604740    -0.38000
N1668       N  0.34051487  0.52063589  0.39340690    -0.39700
C1669       C  0.51955914  0.45926578  0.31957512    -0.04600
C1670       C  0.50533163  0.44206938  0.30594925     0.09500
C1671       C  0.51312442  0.43539661  0.28203240    -0.02000
C1672       C  0.53374356  0.44711024  0.27118361    -0.00300
C1673       C  0.54679330  0.46574784  0.28404652    -0.03900
C1674       C  0.54009630  0.47116431  0.30861117     0.03100
C1675       C  0.48156898  0.43170054  0.31619816     0.10000
C1676       C  0.49934681  0.41698639  0.26826803     0.35900
C1677       C  0.55342550  0.49011106  0.32205636     0.39300
C1678       C  0.45847638  0.44036343  0.30755861    -0.04300
C1679       C  0.43609895  0.42997847  0.31626834     0.02900
C1680       C  0.43648507  0.41093594  0.33402820    -0.03900
C1681       C  0.45974047  0.40229363  0.34262406    -0.00100
C1682       C  0.48203809  0.41265932  0.33380173    -0.02700
C1683       C  0.45779796  0.46015437  0.28968489     0.36600
C1684       C  0.46093745  0.38184499  0.35975631     0.40200
C1685       C  0.41269673  0.43928606  0.30718664     0.39300
C1686       C  0.50560563  0.40342112  0.34255272     0.36300
C1687       C  0.51248079  0.46540342  0.34457264     0.37000
C1688       C  0.54096261  0.44072988  0.24627316     0.40200
N1689       N  0.39404606  0.44668996  0.29983980    -0.37900
N1690       N  0.45734738  0.47592472  0.27540011    -0.39400
N1691       N  0.46188461  0.36550364  0.37336803    -0.37200
N1692       N  0.52441687  0.39612107  0.34958557    -0.39600
N1693       N  0.48823648  0.40235884  0.25731940    -0.39400
N1694       N  0.54672730  0.43559446  0.22640749    -0.37000
N1695       N  0.56408360  0.50527544  0.33271740    -0.38000
N1696       N  0.50691323  0.47016966  0.36458834    -0.39700
C1697       C  0.29591467  0.26196054  0.43767417    -0.04600
C1698       C  0.29346761  0.23997990  0.42386761     0.09500
C1699       C  0.29932797  0.24011555  0.39858783    -0.02000
C1700       C  0.30882282  0.26171191  0.38746767    -0.00300
C1701       C  0.31204573  0.28362559  0.40145149    -0.03900
C1702       C  0.30517641  0.28363637  0.42659030     0.03100
C1703       C  0.28675850  0.21636943  0.43671788     0.10000
C1704       C  0.29599387  0.21781338  0.38417941     0.35900
C1705       C  0.30940490  0.30537947  0.44163099     0.39300
C1706       C  0.26191657  0.20850732  0.43822808    -0.04300
C1707       C  0.25537401  0.18884015  0.45397498     0.02900
C1708       C  0.27363793  0.17688845  0.46821687    -0.03900
C1709       C  0.29868550  0.18342506  0.46512827    -0.00100
C1710       C  0.30522894  0.20299357  0.44933257    -0.02700
C1711       C  0.24302431  0.22121224  0.42424183     0.36600
C1712       C  0.31756662  0.17095944  0.47938933     0.40200
C1713       C  0.22970836  0.18154177  0.45644639     0.39300
C1714       C  0.33093441  0.21007658  0.44675273     0.36300
C1715       C  0.28960379  0.26196798  0.46362730     0.37000
C1716       C  0.31564723  0.26118540  0.36166394     0.40200
N1717       N  0.20926864  0.17560023  0.45849538    -0.37900
N1718       N  0.22792336  0.23125420  0.41299040    -0.39400
N1719       N  0.33256798  0.16099576  0.49084093    -0.37200
N1720       N  0.35142879  0.21577145  0.44459188    -0.39600
N1721       N  0.29316705  0.20000340  0.37273268    -0.39400
N1722       N  0.32123499  0.26065171  0.34111189    -0.37000
N1723       N  0.31294947  0.32265884  0.45368080    -0.38000
N1724       N  0.28456882  0.26183025  0.48432453    -0.39700
C1725       C  0.21980886  0.43287939  0.25791014    -0.04600
C1726       C  0.22384919  0.43026849  0.28346970     0.09500
C1727       C  0.20740351  0.44172026  0.30013469    -0.02000
C1728       C  0.18814139  0.45697010  0.29136484    -0.00300
C1729       C  0.18507086  0.46086177  0.26583841    -0.03900
C1730       C  0.20059569  0.44820170  0.24913037     0.03100
C1731       C  0.24632331  0.41688909  0.29295010     0.10000
C1732       C  0.21103218  0.43868440  0.32640534     0.35900
C1733       C  0.19745058  0.45186686  0.22287040     0.39300
C1734       C  0.26949284  0.42890230  0.29361634    -0.04300
C1735       C  0.29028433  0.41728304  0.30434373     0.02900
C1736       C  0.28825242  0.39327511  0.31439644    -0.03900
C1737       C  0.26511163  0.38094690  0.31283667    -0.00100
C1738       C  0.24432932  0.39274570  0.30225847    -0.02700
C1739       C  0.27173463  0.45366789  0.28388042     0.36600
C1740       C  0.26254257  0.35598089  0.32195471     0.40200
C1741       C  0.31335432  0.43081006  0.30630630     0.39300
C1742       C  0.22066892  0.38019115  0.30119469     0.36300
C1743       C  0.23596520  0.42037127  0.24068126     0.37000
C1744       C  0.17254402  0.47009328  0.30866689     0.40200
N1745       N  0.33173340  0.44162979  0.30794692    -0.37900
N1746       N  0.27350910  0.47340046  0.27606091    -0.39400
N1747       N  0.26037898  0.33607634  0.32923572    -0.37200
N1748       N  0.20172245  0.37030316  0.30035513    -0.39600
N1749       N  0.21393698  0.43618771  0.34736411    -0.39400
N1750       N  0.16010077  0.48068552  0.32238296    -0.37000
N1751       N  0.19495908  0.45486100  0.20192381    -0.38000
N1752       N  0.24888933  0.41036005  0.22697239    -0.39700
C1753       C  0.42534838  0.25842018  0.21532008    -0.04600
C1754       C  0.42903650  0.28225025  0.22517687     0.09500
C1755       C  0.44533547  0.29868438  0.21325172    -0.02000
C1756       C  0.45936459  0.29067072  0.19287544    -0.00300
C1757       C  0.45719404  0.26618491  0.18430128    -0.03900
C1758       C  0.43936691  0.25043268  0.19489381     0.03100
C1759       C  0.41699223  0.28970879  0.24892134     0.10000
C1760       C  0.44846760  0.32352780  0.22269338     0.35900
C1761       C  0.43626949  0.22563132  0.18536109     0.39300
C1762       C  0.43092143  0.29004317  0.27095815    -0.04300
C1763       C  0.42053865  0.29941752  0.29291538     0.02900
C1764       C  0.39593087  0.30825781  0.29308434    -0.03900
C1765       C  0.38158472  0.30651806  0.27126466    -0.00100
C1766       C  0.39211664  0.29736391  0.24930337    -0.02700
C1767       C  0.45618203  0.28108919  0.27086398     0.36600
C1768       C  0.35587751  0.31411390  0.27134519     0.40200
C1769       C  0.43575698  0.30124861  0.31488312     0.39300
C1770       C  0.37748328  0.29617651  0.22692713     0.36300
C1771       C  0.40796751  0.24177719  0.22692680     0.37000
C1772       C  0.47724334  0.30710428  0.18169354     0.40200
N1773       N  0.44792765  0.30275230  0.33237854    -0.37900
N1774       N  0.47631329  0.27391254  0.27073066    -0.39400
N1775       N  0.33538714  0.32020610  0.27142190    -0.37200
N1776       N  0.36580177  0.29507531  0.20908308    -0.39600
N1777       N  0.45101060  0.34330938  0.23031574    -0.39400
N1778       N  0.49153256  0.32013422  0.17269658    -0.37000
N1779       N  0.43375563  0.20586769  0.17768365    -0.38000
N1780       N  0.39401887  0.22857550  0.23619856    -0.39700
C1781       C  0.44575854  0.30829085  0.46425030    -0.04600
C1782       C  0.43533783  0.31581779  0.48687610     0.09500
C1783       C  0.41428489  0.33103722  0.48694141    -0.02000
C1784       C  0.40350957  0.33856694  0.46451443    -0.00300
C1785       C  0.41376715  0.33087616  0.44171358    -0.03900
C1786       C  0.43494154  0.31563758  0.44174940     0.03100
C1787       C  0.44591011  0.30661681  0.51063076     0.10000
C1788       C  0.40357279  0.33867246  0.51021081     0.35900
C1789       C  0.44592365  0.30785953  0.41866240     0.39300
C1790       C  0.46666438  0.31826130  0.52134684    -0.04300
C1791       C  0.47840333  0.30763919  0.54196196     0.02900
C1792       C  0.46962150  0.28520416  0.55171735    -0.03900
C1793       C  0.44771801  0.27466927  0.54223192    -0.00100
C1794       C  0.43582803  0.28540778  0.52177563    -0.02700
C1795       C  0.47652104  0.34056784  0.51050042     0.36600
C1796       C  0.43821405  0.25204202  0.55273655     0.40200
C1797       C  0.50029386  0.31904680  0.55245655     0.39300
C1798       C  0.41384405  0.27405217  0.51142907     0.36300
C1799       C  0.46763421  0.29286994  0.46419134     0.37000
C1800       C  0.38123429  0.35344801  0.46506793     0.40200
N1801       N  0.51771799  0.32808780  0.56097966    -0.37900
N1802       N  0.48444447  0.35833720  0.50181387    -0.39400
N1803       N  0.43062083  0.23399677  0.56114386    -0.37200
N1804       N  0.39626685  0.26513116  0.50309672    -0.39600
N1805       N  0.39507183  0.34465716  0.52882304    -0.39400
N1806       N  0.36347740  0.36530887  0.46557140    -0.37000
N1807       N  0.45460476  0.30161305  0.40021707    -0.38000
N1808       N  0.48514221  0.28064636  0.46419022    -0.39700
C1809       C  0.54587584  0.05488203  0.31159460    -0.04600
C1810       C  0.52278471  0.06498845  0.31821414     0.09500
C1811       C  0.52174383  0.08377149  0.33613681    -0.02000
C1812       C  0.54374231  0.09315949  0.34668525    -0.00300
C1813       C  0.56706863  0.08340581  0.33972960    -0.03900
C1814       C  0.56789093  0.06388544  0.32241255     0.03100
C1815       C  0.49973601  0.05635001  0.30541371     0.10000
C1816       C  0.49796398  0.09373821  0.34333686     0.35900
C1817       C  0.59135652  0.05278135  0.31588955     0.39300
C1818       C  0.48681416  0.03552901  0.31409753    -0.04300
C1819       C  0.46752371  0.02512509  0.29990866     0.02900
C1820       C  0.46115575  0.03540495  0.27689382    -0.03900
C1821       C  0.47292241  0.05725219  0.26906323    -0.00100
C1822       C  0.49203251  0.06780848  0.28339159    -0.02700
C1823       C  0.49419727  0.02415354  0.33706937     0.36600
C1824       C  0.46623026  0.06808507  0.24561077     0.40200
C1825       C  0.45532577  0.00281027  0.30812429     0.39300
C1826       C  0.50457888  0.08985969  0.27499604     0.36300
C1827       C  0.54693411  0.03540867  0.29326071     0.37000
C1828       C  0.54227734  0.11385443  0.36361980     0.40200
N1829       N  0.44553770  0.98498100  0.31452205    -0.37900
N1830       N  0.50012202  0.01506216  0.35539509    -0.39400
N1831       N  0.46092970  0.07671149  0.22687285    -0.37200
N1832       N  0.51462943  0.10748106  0.26842495    -0.39600
N1833       N  0.47896370  0.10161277  0.34909866    -0.39400
N1834       N  0.54108878  0.13041989  0.37704323    -0.37000
N1835       N  0.61006038  0.04386695  0.31070605    -0.38000
N1836       N  0.54766908  0.01991674  0.27858830    -0.39700
C1837       C  0.75724547  0.10647249  0.30427831    -0.04600
C1838       C  0.75614992  0.08231790  0.29474343     0.09500
C1839       C  0.73320950  0.06988665  0.29402147    -0.02000
C1840       C  0.71190378  0.08075161  0.30453081    -0.00300
C1841       C  0.71313832  0.10466990  0.31511124    -0.03900
C1842       C  0.73582477  0.11780197  0.31390806     0.03100
C1843       C  0.77944018  0.06931585  0.28700033     0.10000
C1844       C  0.73172303  0.04554142  0.28299993     0.35900
C1845       C  0.73724666  0.14314796  0.32240307     0.39300
C1846       C  0.79461119  0.05805899  0.30492529    -0.04300
C1847       C  0.81544726  0.04412340  0.29775200     0.02900
C1848       C  0.82129042  0.04118606  0.27256509    -0.03900
C1849       C  0.80662686  0.05322430  0.25469036    -0.00100
C1850       C  0.78590904  0.06739511  0.26189656    -0.02700
C1851       C  0.78802430  0.05984445  0.33074507     0.36600
C1852       C  0.81213467  0.04991303  0.22878096     0.40200
C1853       C  0.82992559  0.03132412  0.31621404     0.39300
C1854       C  0.77068156  0.07931665  0.24346663     0.36300
C1855       C  0.78068326  0.11946334  0.30467385     0.37000
C1856       C  0.68922332  0.06652524  0.30573533     0.40200
N1857       N  0.84144616  0.02100166  0.33088737    -0.37900
N1858       N  0.78266391  0.06126669  0.35131619    -0.39400
N1859       N  0.81647813  0.04717964  0.20809863    -0.37200
N1860       N  0.75844766  0.08882851  0.22881336    -0.39600
N1861       N  0.73052236  0.02621188  0.27400947    -0.39400
N1862       N  0.67119441  0.05507911  0.30677524    -0.37000
N1863       N  0.73837259  0.16337978  0.32912381    -0.38000
N1864       N  0.79944079  0.12972198  0.30510367    -0.39700
C1865       C  0.69978236  0.26030228  0.39469596    -0.04600
C1866       C  0.70803777  0.26070934  0.41935299     0.09500
C1867       C  0.70753536  0.23872466  0.43319838    -0.02000
C1868       C  0.69826743  0.21666672  0.42272992    -0.00300
C1869       C  0.68895673  0.21639568  0.39831821    -0.03900
C1870       C  0.69016016  0.23834236  0.38425162     0.03100
C1871       C  0.71698688  0.28428108  0.43109140     0.10000
C1872       C  0.71599935  0.23900707  0.45857058     0.35900
C1873       C  0.68189503  0.23830987  0.35882942     0.39300
C1874       C  0.69990244  0.30168407  0.44034864    -0.04300
C1875       C  0.70823218  0.32216737  0.45429370     0.02900
C1876       C  0.73365370  0.32510708  0.45949765    -0.03900
C1877       C  0.75081535  0.30868198  0.44872520    -0.00100
C1878       C  0.74252761  0.28841056  0.43455406    -0.02700
C1879       C  0.67364771  0.29772499  0.43667732     0.36600
C1880       C  0.77705063  0.31219764  0.45307898     0.40200
C1881       C  0.69055838  0.33951450  0.46437346     0.39300
C1882       C  0.76023587  0.27115912  0.42437309     0.36300
C1883       C  0.70120553  0.28258948  0.38011184     0.37000
C1884       C  0.69732731  0.19453700  0.43762020     0.40200
N1885       N  0.67649334  0.35346857  0.47231100    -0.37900
N1886       N  0.65269869  0.29447410  0.43378410    -0.39400
N1887       N  0.79794676  0.31508513  0.45666452    -0.37200
N1888       N  0.77435063  0.25733272  0.41630778    -0.39600
N1889       N  0.72275609  0.23930990  0.47880166    -0.39400
N1890       N  0.69664040  0.17687122  0.44948047    -0.37000
N1891       N  0.67533292  0.23833028  0.33853227    -0.38000
N1892       N  0.70241014  0.30041537  0.36853831    -0.39700
C1893       C  0.56341425  0.19600874  0.27097255    -0.04600
C1894       C  0.57678114  0.19691556  0.24869060     0.09500
C1895       C  0.60187138  0.19005710  0.24845033    -0.02000
C1896       C  0.61367312  0.18252260  0.27037791    -0.00300
C1897       C  0.60036404  0.18150181  0.29282766    -0.03900
C1898       C  0.57507456  0.18820812  0.29292996     0.03100
C1899       C  0.56452924  0.20583483  0.22558902     0.10000
C1900       C  0.61541774  0.19044252  0.22543998     0.35900
C1901       C  0.56060496  0.18577314  0.31525187     0.39300
C1902       C  0.56609124  0.23094723  0.21911727    -0.04300
C1903       C  0.55280265  0.23992299  0.19867198     0.02900
C1904       C  0.53719723  0.22403721  0.18508339    -0.03900
C1905       C  0.53673031  0.19865175  0.19065546    -0.00100
C1906       C  0.55066803  0.18950032  0.21066875    -0.02700
C1907       C  0.58043692  0.24775758  0.23426466     0.36600
C1908       C  0.52095406  0.18223459  0.17652135     0.40200
C1909       C  0.55422444  0.26579780  0.19220490     0.39300
C1910       C  0.55019289  0.16343812  0.21641849     0.36300
C1911       C  0.53748022  0.20277099  0.27114012     0.37000
C1912       C  0.63965467  0.17596716  0.26975862     0.40200
N1913       N  0.55537220  0.28639357  0.18687223    -0.37900
N1914       N  0.59178282  0.26114456  0.24648322    -0.39400
N1915       N  0.50831873  0.16918436  0.16522611    -0.37200
N1916       N  0.54992131  0.14262072  0.22096424    -0.39600
N1917       N  0.62610965  0.19067991  0.20701358    -0.39400
N1918       N  0.66035719  0.17066309  0.26923774    -0.37000
N1919       N  0.54900391  0.18370042  0.33300580    -0.38000
N1920       N  0.51678373  0.20812763  0.27117466    -0.39700
C1921       C  0.54135662  0.18950266  0.52453941    -0.04600
C1922       C  0.55993331  0.20169421  0.51098519     0.09500
C1923       C  0.56848588  0.22495437  0.51903857    -0.02000
C1924       C  0.55712341  0.23683958  0.53921968    -0.00300
C1925       C  0.53738131  0.22538191  0.55176996    -0.03900
C1926       C  0.53015781  0.20128957  0.54491421     0.03100
C1927       C  0.56974866  0.19064245  0.48755662     0.10000
C1928       C  0.58844979  0.23698535  0.50595980     0.35900
C1929       C  0.51015378  0.18927298  0.55794405     0.39300
C1930       C  0.55983038  0.19779379  0.46458290    -0.04300
C1931       C  0.56941517  0.18793539  0.44242223     0.02900
C1932       C  0.58936486  0.17105338  0.44299223    -0.03900
C1933       C  0.59934951  0.16410292  0.46617135    -0.00100
C1934       C  0.58933670  0.17359721  0.48825624    -0.02700
C1935       C  0.53971675  0.21542747  0.46382004     0.36600
C1936       C  0.62079834  0.14811424  0.46745530     0.40200
C1937       C  0.55829597  0.19483438  0.41911715     0.39300
C1938       C  0.59939084  0.16607570  0.51183712     0.36300
C1939       C  0.53309440  0.16524788  0.51684528     0.37000
C1940       C  0.56474451  0.26151605  0.54624262     0.40200
N1941       N  0.54939073  0.20034638  0.40054105    -0.37900
N1942       N  0.52372440  0.22955586  0.46328239    -0.39400
N1943       N  0.63796776  0.13545534  0.46847426    -0.37200
N1944       N  0.60730215  0.16003314  0.53068298    -0.39600
N1945       N  0.60442201  0.24649398  0.49549606    -0.39400
N1946       N  0.57070629  0.28124453  0.55183460    -0.37000
N1947       N  0.49419059  0.17972726  0.56838899    -0.38000
N1948       N  0.52655317  0.14587713  0.51066719    -0.39700
C1949       C  0.70747576  0.04824376  0.44927597    -0.04600
C1950       C  0.70228917  0.02482709  0.43899596     0.09500
C1951       C  0.68578250  0.02298516  0.41895657    -0.02000
C1952       C  0.67427458  0.04428530  0.40942352    -0.00300
C1953       C  0.67924670  0.06779838  0.41980896    -0.03900
C1954       C  0.69611478  0.06964323  0.43967482     0.03100
C1955       C  0.71386239  0.00203031  0.44964878     0.10000
C1956       C  0.68090543  0.99907234  0.40796050     0.35900
C1957       C  0.70133484  0.09347572  0.45069642     0.39300
C1958       C  0.70027494  0.98693077  0.46589393    -0.04300
C1959       C  0.71178915  0.96682222  0.47773667     0.02900
C1960       C  0.73711529  0.96199386  0.47387201    -0.03900
C1961       C  0.75025042  0.97609013  0.45637210    -0.00100
C1962       C  0.73860160  0.99589511  0.44414240    -0.02700
C1963       C  0.67475580  0.99288749  0.47135903     0.36600
C1964       C  0.77612517  0.97085722  0.45183837     0.40200
C1965       C  0.69798705  0.95194519  0.49506665     0.39300
C1966       C  0.75225638  0.01048656  0.42645053     0.36300
C1967       C  0.72438530  0.05024836  0.46994464     0.37000
C1968       C  0.65802904  0.04199077  0.38823074     0.40200
N1969       N  0.68702192  0.93996540  0.50884692    -0.37900
N1970       N  0.65440812  0.99774425  0.47570910    -0.39400
N1971       N  0.79677736  0.96667780  0.44825975    -0.37200
N1972       N  0.76310673  0.02214647  0.41230717    -0.39600
N1973       N  0.67707926  0.97995183  0.39925307    -0.39400
N1974       N  0.64509538  0.04016078  0.37131806    -0.37000
N1975       N  0.70550152  0.11250096  0.45946867    -0.38000
N1976       N  0.73791109  0.05182026  0.48641160    -0.39700
C1977       C  0.19410224  0.51739897  0.54222234    -0.04600
C1978       C  0.20742927  0.50739915  0.56216828     0.09500
C1979       C  0.22860834  0.51970436  0.57116240    -0.02000
C1980       C  0.23770520  0.54066424  0.55881715    -0.00300
C1981       C  0.22566815  0.54927664  0.53744168    -0.03900
C1982       C  0.20317306  0.53835040  0.52992239     0.03100
C1983       C  0.19975546  0.48322911  0.57286665     0.10000
C1984       C  0.24167152  0.51001615  0.59235275     0.35900
C1985       C  0.19036585  0.54766573  0.50838939     0.39300
C1986       C  0.21039987  0.46111793  0.56417503    -0.04300
C1987       C  0.20257313  0.43817147  0.57358167     0.02900
C1988       C  0.18392046  0.43720732  0.59176035    -0.03900
C1989       C  0.17347128  0.45958853  0.60057287    -0.00100
C1990       C  0.18136762  0.48241002  0.59108674    -0.02700
C1991       C  0.22920374  0.46205584  0.54523067     0.36600
C1992       C  0.15493841  0.45942181  0.61987776     0.40200
C1993       C  0.21313180  0.41560132  0.56385688     0.39300
C1994       C  0.17055400  0.50520040  0.60000906     0.36300
C1995       C  0.17181545  0.50526290  0.53354122     0.37000
C1996       C  0.26044880  0.55230667  0.56695092     0.40200
N1997       N  0.22154472  0.39759146  0.55609240    -0.37900
N1998       N  0.24420925  0.46289586  0.53011942    -0.39400
N1999       N  0.14007972  0.45934650  0.63517649    -0.37200
N2000       N  0.16196194  0.52342184  0.60703377    -0.39600
N2001       N  0.25207517  0.50221171  0.60924867    -0.39400
N2002       N  0.27859104  0.56166076  0.57337636    -0.37000
N2003       N  0.18020492  0.55509699  0.49118066    -0.38000
N2004       N  0.15405862  0.49549925  0.52666491    -0.39700
C2005       C  0.12216057  0.31011418  0.76330851    -0.04600
C2006       C  0.09721353  0.30262444  0.76347162     0.09500
C2007       C  0.08332452  0.30321530  0.74145145    -0.02000
C2008       C  0.09414900  0.31166380  0.71943625    -0.00300
C2009       C  0.11916086  0.31928191  0.71915731    -0.03900
C2010       C  0.13316794  0.31831824  0.74122475     0.03100
C2011       C  0.08526107  0.29374738  0.78665962     0.10000
C2012       C  0.05766670  0.29539720  0.74159632     0.35900
C2013       C  0.15901971  0.32546482  0.74119864     0.39300
C2014       C  0.07179343  0.31025806  0.80161614    -0.04300
C2015       C  0.05657049  0.30117199  0.82063112     0.02900
C2016       C  0.05487961  0.27555585  0.82482561    -0.03900
C2017       C  0.06985344  0.25926266  0.81109165    -0.00100
C2018       C  0.08504424  0.26835232  0.79208780    -0.02700
C2019       C  0.07267536  0.33646819  0.79658689     0.36600
C2020       C  0.06860874  0.23299038  0.81570753     0.40200
C2021       C  0.04131239  0.31798821  0.83476165     0.39300
C2022       C  0.09952731  0.25149896  0.77721886     0.36300
C2023       C  0.13637915  0.30953855  0.78595870     0.37000
C2024       C  0.07905570  0.31378421  0.69741765     0.40200
N2025       N  0.02904790  0.33132318  0.84603703    -0.37900
N2026       N  0.07340179  0.35738494  0.79256753    -0.39400
N2027       N  0.06757199  0.21202189  0.81937176    -0.37200
N2028       N  0.11112535  0.23816421  0.76526317    -0.39600
N2029       N  0.03721911  0.28912650  0.74179230    -0.39400
N2030       N  0.06702369  0.31560332  0.67987311    -0.37000
N2031       N  0.17964358  0.33115344  0.74117964    -0.38000
N2032       N  0.14767462  0.30911217  0.80407101    -0.39700
C2033       C  0.06977722  0.30549685  0.54709184    -0.04600
C2034       C  0.08163477  0.31009376  0.52440517     0.09500
C2035       C  0.10451259  0.32246913  0.52413399    -0.02000
C2036       C  0.11516846  0.33091599  0.54634170    -0.00300
C2037       C  0.10307240  0.32684938  0.56910620    -0.03900
C2038       C  0.08054351  0.31367182  0.56940710     0.03100
C2039       C  0.06976940  0.30205744  0.50076337     0.10000
C2040       C  0.11703248  0.32649901  0.50090357     0.35900
C2041       C  0.06799367  0.30925868  0.59254480     0.39300
C2042       C  0.05335666  0.31796446  0.48832258    -0.04300
C2043       C  0.03946707  0.30919817  0.46807389     0.02900
C2044       C  0.04223619  0.28461969  0.45998435    -0.03900
C2045       C  0.06035217  0.26950131  0.47098549    -0.00100
C2046       C  0.07394570  0.27812332  0.49147057    -0.02700
C2047       C  0.04999357  0.34299235  0.49710218     0.36600
C2048       C  0.06389939  0.24454961  0.46203625     0.40200
C2049       C  0.02115401  0.32490088  0.45654609     0.39300
C2050       C  0.09136129  0.26200932  0.50376434     0.36300
C2051       C  0.04626291  0.29264397  0.54735221     0.37000
C2052       C  0.13890382  0.34339779  0.54574128     0.40200
N2053       N  0.00649667  0.33737853  0.44734196    -0.37900
N2054       N  0.04739656  0.36297416  0.50412690    -0.39400
N2055       N  0.06669998  0.22467518  0.45479018    -0.37200
N2056       N  0.10521523  0.24915804  0.51365811    -0.39600
N2057       N  0.12698558  0.32961798  0.48233452    -0.39400
N2058       N  0.15781082  0.35337878  0.54526156    -0.37000
N2059       N  0.05800520  0.30569537  0.61101684    -0.38000
N2060       N  0.02748168  0.28242233  0.54746597    -0.39700
C2061       C  0.29660308  0.43531926  0.74718961    -0.04600
C2062       C  0.29380163  0.43206232  0.72157374     0.09500
C2063       C  0.31214958  0.44113574  0.70550221    -0.02000
C2064       C  0.33180359  0.45562280  0.71481072    -0.00300
C2065       C  0.33313215  0.46101740  0.74023110    -0.03900
C2066       C  0.31642175  0.44944612  0.75650846     0.03100
C2067       C  0.27064375  0.42065857  0.71148262     0.10000
C2068       C  0.31014185  0.43641434  0.67929006     0.35900
C2069       C  0.31925375  0.45276740  0.78287373     0.39300
C2070       C  0.25059578  0.43583700  0.70465842    -0.04300
C2071       C  0.22877690  0.42534421  0.69485026     0.02900
C2072       C  0.22678745  0.39951734  0.69191509    -0.03900
C2073       C  0.24677826  0.38433271  0.69918082    -0.00100
C2074       C  0.26861329  0.39489287  0.70888692    -0.02700
C2075       C  0.25270282  0.46237297  0.70728690     0.36600
C2076       C  0.24487092  0.35776850  0.69676226     0.40200
C2077       C  0.20897757  0.44126990  0.68645107     0.39300
C2078       C  0.28923002  0.37933518  0.71584619     0.36300
C2079       C  0.27836665  0.42515880  0.76385091     0.37000
C2080       C  0.34988317  0.46600765  0.69812766     0.40200
N2081       N  0.19323195  0.45396442  0.67962821    -0.37900
N2082       N  0.25450077  0.48352991  0.70936571    -0.39400
N2083       N  0.24336190  0.33657553  0.69483002    -0.37200
N2084       N  0.30575575  0.36700566  0.72137711    -0.39600
N2085       N  0.30851207  0.43258697  0.65837580    -0.39400
N2086       N  0.36444166  0.47417530  0.68486840    -0.37000
N2087       N  0.32159801  0.45526025  0.80391612    -0.38000
N2088       N  0.26376325  0.41709629  0.77712142    -0.39700
C2089       C  0.22398687  0.26338802  0.57965830    -0.04600
C2090       C  0.22455541  0.24219402  0.59467120     0.09500
C2091       C  0.21682247  0.24394853  0.61936983    -0.02000
C2092       C  0.20724723  0.26637958  0.62861886    -0.00300
C2093       C  0.20512600  0.28729916  0.61313017    -0.03900
C2094       C  0.21420923  0.28578901  0.58873450     0.03100
C2095       C  0.23154675  0.21775901  0.58359949     0.10000
C2096       C  0.21830776  0.22247308  0.63510754     0.35900
C2097       C  0.21211975  0.30673335  0.57234267     0.39300
C2098       C  0.25647430  0.21018861  0.58279982    -0.04300
C2099       C  0.26342084  0.18969846  0.56821739     0.02900
C2100       C  0.24548842  0.17674075  0.55428380    -0.03900
C2101       C  0.22031105  0.18302388  0.55687532    -0.00100
C2102       C  0.21336297  0.20339840  0.57155474    -0.02700
C2103       C  0.27506865  0.22427082  0.59598949     0.36600
C2104       C  0.20174040  0.16964705  0.54291992     0.40200
C2105       C  0.28920454  0.18269988  0.56643653     0.39300
C2106       C  0.18759430  0.21051995  0.57317759     0.36300
C2107       C  0.23284271  0.26183720  0.55450250     0.37000
C2108       C  0.19957471  0.26786140  0.65416643     0.40200
N2109       N  0.30977189  0.17705875  0.56502001    -0.37900
N2110       N  0.28987512  0.23554981  0.60654017    -0.39400
N2111       N  0.18696763  0.15898734  0.53170308    -0.37200
N2112       N  0.16706500  0.21630715  0.57453523    -0.39600
N2113       N  0.21953855  0.20534221  0.64768073    -0.39400
N2114       N  0.19342498  0.26906714  0.67453220    -0.37000
N2115       N  0.21043413  0.32338636  0.55919189    -0.38000
N2116       N  0.23998774  0.26047685  0.53447718    -0.39700
C2117       C  0.05538358  0.44475295  0.69648997    -0.04600
C2118       C  0.03257251  0.43410189  0.68949797     0.09500
C2119       C  0.03233019  0.41415258  0.67285829    -0.02000
C2120       C  0.05473256  0.40440103  0.66375737    -0.00300
C2121       C  0.07775862  0.41498540  0.67073739    -0.03900
C2122       C  0.07784404  0.43549031  0.68691898     0.03100
C2123       C  0.00885066  0.44334490  0.70048284     0.10000
C2124       C  0.00890165  0.40339120  0.66545046     0.35900
C2125       C  0.10094918  0.44754431  0.69325320     0.39300
C2126       C  0.99528051  0.46223984  0.68884939    -0.04300
C2127       C  0.97453526  0.47275812  0.70066641     0.02900
C2128       C  0.96717418  0.46437755  0.72414364    -0.03900
C2129       C  0.97980187  0.44435799  0.73497528    -0.00100
C2130       C  0.00049809  0.43383336  0.72315007    -0.02700
C2131       C  0.00333633  0.47152973  0.66519299     0.36600
C2132       C  0.97238616  0.43563352  0.75906596     0.40200
C2133       C  0.96173822  0.49335507  0.68947725     0.39300
C2134       C  0.01391041  0.41386131  0.73475749     0.36300
C2135       C  0.05569124  0.46510871  0.71385647     0.37000
C2136       C  0.05392742  0.38268189  0.64809699     0.40200
N2137       N  0.95151724  0.50984314  0.68065074    -0.37900
N2138       N  0.00978922  0.47891793  0.64630301    -0.39400
N2139       N  0.96650622  0.42874948  0.77832889    -0.37200
N2140       N  0.02470412  0.39793231  0.74392760    -0.39600
N2141       N  0.99017768  0.39488915  0.65953035    -0.39400
N2142       N  0.05326059  0.36533349  0.63565835    -0.37000
N2143       N  0.11937626  0.45723444  0.69820670    -0.38000
N2144       N  0.05588194  0.48125983  0.72782055    -0.39700
C2145       C  0.18816956  0.97956387  0.41138630    -0.04600
C2146       C  0.20182940  0.97856193  0.43349274     0.09500
C2147       C  0.20550061  0.95560514  0.44513024    -0.02000
C2148       C  0.19574893  0.93376270  0.43464631    -0.00300
C2149       C  0.18182435  0.93472436  0.41260551    -0.03900
C2150       C  0.17800658  0.95781869  0.40109230     0.03100
C2151       C  0.21247822  0.00161573  0.44470744     0.10000
C2152       C  0.21934764  0.95454516  0.46800590     0.35900
C2153       C  0.16428531  0.95916891  0.37815264     0.39300
C2154       C  0.19847867  0.01563382  0.46159696    -0.04300
C2155       C  0.20952750  0.03539613  0.47460029     0.02900
C2156       C  0.23478618  0.04098381  0.47116206    -0.03900
C2157       C  0.24842133  0.02776383  0.45331034    -0.00100
C2158       C  0.23718108  0.00841422  0.43985463    -0.02700
C2159       C  0.17305377  0.00884630  0.46652718     0.36600
C2160       C  0.27444731  0.03313350  0.44988238     0.40200
C2161       C  0.19540377  0.04891626  0.49283497     0.39300
C2162       C  0.25126085  0.99482078  0.42164888     0.36300
C2163       C  0.18496604  0.00299450  0.39904261     0.37000
C2164       C  0.19964676  0.91038848  0.44689792     0.40200
N2165       N  0.18424519  0.05976292  0.50742692    -0.37900
N2166       N  0.15279373  0.00333070  0.47051797    -0.39400
N2167       N  0.29525756  0.03730712  0.44729141    -0.37200
N2168       N  0.26239949  0.98398518  0.40703191    -0.39600
N2169       N  0.23038422  0.95380714  0.48626516    -0.39400
N2170       N  0.20289448  0.89180644  0.45677193    -0.37000
N2171       N  0.15328651  0.96022731  0.35988704    -0.38000
N2172       N  0.18254244  0.02170280  0.38917029    -0.39700
C2173       C  0.08243280  0.76876154  0.50950624    -0.04600
C2174       C  0.07929918  0.79399468  0.50407763     0.09500
C2175       C  0.06580008  0.80910237  0.52046295    -0.02000
C2176       C  0.05362324  0.79860882  0.54086259    -0.00300
C2177       C  0.05472898  0.77295396  0.54483540    -0.03900
C2178       C  0.07007497  0.75825016  0.52976816     0.03100
C2179       C  0.08815288  0.80421862  0.48002437     0.10000
C2180       C  0.06315924  0.83519215  0.51541661     0.35900
C2181       C  0.07179540  0.73196728  0.53426090     0.39300
C2182       C  0.07515041  0.79874294  0.45805754    -0.04300
C2183       C  0.08260745  0.80920677  0.43546739     0.02900
C2184       C  0.10283484  0.82569193  0.43474738    -0.03900
C2185       C  0.11604947  0.83082466  0.45675924    -0.00100
C2186       C  0.10881972  0.82001424  0.47921696    -0.02700
C2187       C  0.05379133  0.78257539  0.45883803     0.36600
C2188       C  0.13769332  0.84662219  0.45624752     0.40200
C2189       C  0.06902742  0.80344534  0.41312351     0.39300
C2190       C  0.12275318  0.82499899  0.50154042     0.36300
C2191       C  0.09732524  0.75339375  0.49347247     0.37000
C2192       C  0.03838653  0.81388366  0.55665649     0.40200
N2193       N  0.05818067  0.79874508  0.39532553    -0.37900
N2194       N  0.03680889  0.76962182  0.45961046    -0.39400
N2195       N  0.15491403  0.85926716  0.45577865    -0.37200
N2196       N  0.13386186  0.82900797  0.51934336    -0.39600
N2197       N  0.06115006  0.85600670  0.51132223    -0.39400
N2198       N  0.02621813  0.82605508  0.56926792    -0.37000
N2199       N  0.07299869  0.71099863  0.53787392    -0.38000
N2200       N  0.10912520  0.74109842  0.48063197    -0.39700
C2201       C  0.07579763  0.79118473  0.26771540    -0.04600
C2202       C  0.08631897  0.79401359  0.24411712     0.09500
C2203       C  0.11040593  0.80363140  0.24196035    -0.02000
C2204       C  0.12339558  0.81166514  0.26309517    -0.00300
C2205       C  0.11207859  0.81089969  0.28663574    -0.03900
C2206       C  0.08848589  0.79971576  0.28888760     0.03100
C2207       C  0.07127855  0.78857211  0.22146510     0.10000
C2208       C  0.12144971  0.80610438  0.21778369     0.35900
C2209       C  0.07646289  0.79820076  0.31269037     0.39300
C2210       C  0.05333991  0.80568109  0.21350008    -0.04300
C2211       C  0.03797430  0.80011830  0.19320419     0.02900
C2212       C  0.04014777  0.77724571  0.18089509    -0.03900
C2213       C  0.05888501  0.76064687  0.18810015    -0.00100
C2214       C  0.07451942  0.76636505  0.20823396    -0.02700
C2215       C  0.05012135  0.82866767  0.22682653     0.36600
C2216       C  0.06109962  0.73708135  0.17565916     0.40200
C2217       C  0.01914601  0.81751406  0.18555903     0.39300
C2218       C  0.09331524  0.74901710  0.21597689     0.36300
C2219       C  0.05145346  0.78020751  0.27006807     0.37000
C2220       C  0.14849683  0.82072392  0.26047588     0.40200
N2221       N  0.00414106  0.83139281  0.17943330    -0.37900
N2222       N  0.04752533  0.84689081  0.23763517    -0.39400
N2223       N  0.06277178  0.71826831  0.16571451    -0.37200
N2224       N  0.10838893  0.73523759  0.22215779    -0.39600
N2225       N  0.13016732  0.80807267  0.19845272    -0.39400
N2226       N  0.16852512  0.82791220  0.25836281    -0.37000
N2227       N  0.06683604  0.79696780  0.33165765    -0.38000
N2228       N  0.03203316  0.77146170  0.27193965    -0.39700
C2229       C  0.24940660  0.71182191  0.42534100    -0.04600
C2230       C  0.22468967  0.71981865  0.42743510     0.09500
C2231       C  0.20828904  0.70713063  0.44311695    -0.02000
C2232       C  0.21712736  0.68805236  0.45830876    -0.00300
C2233       C  0.24240456  0.68170391  0.45796743    -0.03900
C2234       C  0.25826149  0.69275691  0.44060769     0.03100
C2235       C  0.21646288  0.74296809  0.41497220     0.10000
C2236       C  0.18256522  0.71448457  0.44438044     0.35900
C2237       C  0.28380619  0.68491789  0.43898110     0.39300
C2238       C  0.20813986  0.74250985  0.39039005    -0.04300
C2239       C  0.19926688  0.76425950  0.37924155     0.02900
C2240       C  0.19858878  0.78671452  0.39269785    -0.03900
C2241       C  0.20753981  0.78713686  0.41722978    -0.00100
C2242       C  0.21642242  0.76536108  0.42825138    -0.02700
C2243       C  0.20817954  0.71945218  0.37681328     0.36600
C2244       C  0.20627411  0.80956075  0.43180127     0.40200
C2245       C  0.19077790  0.76339310  0.35388921     0.39300
C2246       C  0.22488214  0.76576465  0.45363565     0.36300
C2247       C  0.26589145  0.72393368  0.40819218     0.37000
C2248       C  0.20052269  0.67573538  0.47522828     0.40200
N2249       N  0.18391601  0.76263686  0.33370069    -0.37900
N2250       N  0.20821606  0.70101434  0.36604890    -0.39400
N2251       N  0.20526397  0.82739869  0.44348901    -0.37200
N2252       N  0.23153138  0.76597980  0.47390276    -0.39600
N2253       N  0.16204484  0.72037318  0.44540553    -0.39400
N2254       N  0.18738301  0.66576282  0.48871893    -0.37000
N2255       N  0.30415327  0.67853706  0.43755486    -0.38000
N2256       N  0.27893910  0.73362039  0.39440913    -0.39700
C2257       C  0.20835230  0.95135723  0.70309377    -0.04600
C2258       C  0.21984481  0.93552988  0.72026946     0.09500
C2259       C  0.21032943  0.93406098  0.74443155    -0.02000
C2260       C  0.19066846  0.94950513  0.75182997    -0.00300
C2261       C  0.18050339  0.96670938  0.73521318    -0.03900
C2262       C  0.18883354  0.96697426  0.71058648     0.03100
C2263       C  0.24298112  0.92166513  0.71353696     0.10000
C2264       C  0.22149338  0.91730077  0.76195082     0.35900
C2265       C  0.17813541  0.98430477  0.69332793     0.39300
C2266       C  0.26624828  0.93045212  0.72147923    -0.04300
C2267       C  0.28806779  0.91719005  0.71603614     0.02900
C2268       C  0.28708371  0.89536970  0.70155538    -0.03900
C2269       C  0.26357641  0.88686085  0.69328874    -0.00100
C2270       C  0.24174281  0.89979603  0.69952104    -0.02700
C2271       C  0.26774173  0.95363915  0.73479782     0.36600
C2272       C  0.26163810  0.86542432  0.67735141     0.40200
C2273       C  0.31143827  0.92595061  0.72588577     0.39300
C2274       C  0.21789047  0.89087095  0.69108563     0.36300
C2275       C  0.21733574  0.95233336  0.67798880     0.37000
C2276       C  0.18151113  0.94846597  0.77687453     0.40200
N2277       N  0.33003460  0.93297638  0.73382107    -0.37900
N2278       N  0.26885674  0.97223153  0.74524115    -0.39400
N2279       N  0.26002221  0.84836896  0.66459138    -0.37200
N2280       N  0.19885526  0.88385770  0.68426764    -0.39600
N2281       N  0.23054560  0.90397839  0.77589576    -0.39400
N2282       N  0.17410646  0.94760931  0.79682652    -0.37000
N2283       N  0.16953759  0.99818697  0.67964554    -0.38000
N2284       N  0.22443396  0.95301962  0.65791845    -0.39700
C2285       C  0.31812150  0.97679906  0.61248704    -0.04600
C2286       C  0.31168815  0.97702059  0.58738588     0.09500
C2287       C  0.31454423  0.95541481  0.57315397    -0.02000
C2288       C  0.32450850  0.93382951  0.58375905    -0.00300
C2289       C  0.33115319  0.93342439  0.60904542    -0.03900
C2290       C  0.32746543  0.95513473  0.62340682     0.03100
C2291       C  0.30164029  0.99998110  0.57580108     0.10000
C2292       C  0.30691131  0.95540344  0.54752450     0.35900
C2293       C  0.33230703  0.95524975  0.64972008     0.39300
C2294       C  0.31747759  0.01598812  0.56278429    -0.04300
C2295       C  0.30758217  0.03576272  0.54907991     0.02900
C2296       C  0.28179861  0.03971918  0.54850884    -0.03900
C2297       C  0.26619960  0.02480710  0.56311006    -0.00100
C2298       C  0.27609369  0.00502086  0.57671629    -0.02700
C2299       C  0.34388543  0.01150476  0.56286847     0.36600
C2300       C  0.23973789  0.02911273  0.56307451     0.40200
C2301       C  0.32374221  0.05103370  0.53430390     0.39300
C2302       C  0.25989674  0.98922668  0.59092089     0.36300
C2303       C  0.31485428  0.99896033  0.62714361     0.37000
C2304       C  0.32837024  0.91233012  0.56830223     0.40200
N2305       N  0.33663365  0.06320558  0.52247700    -0.37900
N2306       N  0.36494976  0.00784706  0.56304876    -0.39400
N2307       N  0.21863386  0.03254368  0.56288989    -0.37200
N2308       N  0.24700969  0.97663235  0.60230558    -0.39600
N2309       N  0.30066312  0.95543265  0.52713238    -0.39400
N2310       N  0.33142094  0.89520808  0.55591965    -0.37000
N2311       N  0.33612801  0.95546094  0.67069862    -0.38000
N2312       N  0.31221495  0.01664912  0.63879521    -0.39700
C2313       C  0.44362967  0.80798962  0.55598754    -0.04600
C2314       C  0.42809416  0.79914780  0.53692998     0.09500
C2315       C  0.40231845  0.79893925  0.54045025    -0.02000
C2316       C  0.39203451  0.80825980  0.56243596    -0.00300
C2317       C  0.40742860  0.81828135  0.58117592    -0.03900
C2318       C  0.43337630  0.81746451  0.57805853     0.03100
C2319       C  0.43890230  0.78913864  0.51346586     0.10000
C2320       C  0.38634024  0.78892086  0.52138499     0.35900
C2321       C  0.44956441  0.82676475  0.59726871     0.39300
C2322       C  0.44135091  0.76348269  0.51014630    -0.04300
C2323       C  0.45290781  0.75405492  0.48886073     0.02900
C2324       C  0.46333256  0.77021959  0.47123024    -0.03900
C2325       C  0.45904847  0.79580560  0.47358584    -0.00100
C2326       C  0.44667793  0.80519344  0.49455686    -0.02700
C2327       C  0.43290721  0.74680975  0.52919846     0.36600
C2328       C  0.46840667  0.81258147  0.45510415     0.40200
C2329       C  0.45490463  0.72758985  0.48551900     0.39300
C2330       C  0.44248009  0.83145030  0.49705903     0.36300
C2331       C  0.47022540  0.80716109  0.55285593     0.37000
C2332       C  0.36550809  0.80660299  0.56599537     0.40200
N2333       N  0.45642218  0.70647297  0.48294177    -0.37900
N2334       N  0.42622892  0.73356595  0.54446529    -0.39400
N2335       N  0.47576629  0.82594405  0.44025642    -0.37200
N2336       N  0.43903448  0.85239870  0.49907525    -0.39600
N2337       N  0.37364321  0.78080197  0.50621647    -0.39400
N2338       N  0.34434764  0.80507932  0.56861802    -0.37000
N2339       N  0.46252766  0.83405891  0.61263446    -0.38000
N2340       N  0.49143850  0.80642468  0.55028558    -0.39700
C2341       C  0.39439653  0.80495950  0.77519828    -0.04600
C2342       C  0.41430225  0.78825679  0.77436679     0.09500
C2343       C  0.42192110  0.77861142  0.75141001    -0.02000
C2344       C  0.41013757  0.78606343  0.72940372    -0.00300
C2345       C  0.39111559  0.80397821  0.72997537    -0.03900
C2346       C  0.38315814  0.81317169  0.75318457     0.03100
C2347       C  0.42844245  0.78195971  0.79736868     0.10000
C2348       C  0.44248882  0.76150251  0.75039028     0.35900
C2349       C  0.36445804  0.83227118  0.75460096     0.39300
C2350       C  0.42652149  0.75826625  0.80791860    -0.04300
C2351       C  0.44323151  0.75093048  0.82654820     0.02900
C2352       C  0.46156421  0.76743597  0.83505328    -0.03900
C2353       C  0.46160946  0.79195130  0.82649050    -0.00100
C2354       C  0.44532262  0.79913899  0.80750743    -0.02700
C2355       C  0.40790939  0.74121519  0.79892955     0.36600
C2356       C  0.47941929  0.80938401  0.83638101     0.40200
C2357       C  0.44234268  0.72608164  0.83621085     0.39300
C2358       C  0.44687656  0.82382973  0.79748515     0.36300
C2359       C  0.38585715  0.81412551  0.79881461     0.37000
C2360       C  0.41754635  0.77501877  0.70621026     0.40200
N2361       N  0.44159526  0.70626577  0.84398310    -0.37900
N2362       N  0.39299628  0.72767740  0.79172419    -0.39400
N2363       N  0.49359894  0.82322444  0.84443616    -0.37200
N2364       N  0.44806440  0.84354402  0.78951271    -0.39600
N2365       N  0.45891522  0.74788440  0.74966479    -0.39400
N2366       N  0.42343500  0.76612398  0.68773994    -0.37000
N2367       N  0.34963754  0.84758917  0.75577523    -0.38000
N2368       N  0.37907699  0.82142136  0.81766744    -0.39700
C2369       C  0.30737854  0.71199756  0.55914932    -0.04600
C2370       C  0.28983495  0.71977407  0.57675265     0.09500
C2371       C  0.26660222  0.70795159  0.57781168    -0.02000
C2372       C  0.26041015  0.68947177  0.56047506    -0.00300
C2373       C  0.27740234  0.68275053  0.54194074    -0.03900
C2374       C  0.30112572  0.69364977  0.54171213     0.03100
C2375       C  0.29512086  0.74182178  0.59269301     0.10000
C2376       C  0.24874968  0.71554536  0.59618518     0.35900
C2377       C  0.31873767  0.68664365  0.52285811     0.39300
C2378       C  0.28610598  0.76518385  0.58576191    -0.04300
C2379       C  0.29243966  0.78637872  0.59955158     0.02900
C2380       C  0.30843296  0.78455877  0.62016784    -0.03900
C2381       C  0.31659625  0.76085399  0.62766639    -0.00100
C2382       C  0.30983751  0.73964082  0.61401649    -0.02700
C2383       C  0.27085644  0.76746849  0.56387778     0.36600
C2384       C  0.33308231  0.75817490  0.64859905     0.40200
C2385       C  0.28239431  0.81008719  0.59240877     0.39300
C2386       C  0.31857192  0.71553055  0.62148649     0.36300
C2387       C  0.33152146  0.72363191  0.55838081     0.37000
C2388       C  0.23604822  0.67831623  0.56082422     0.40200
N2389       N  0.27438434  0.82899392  0.58670020    -0.37900
N2390       N  0.25873881  0.76920204  0.54638611    -0.39400
N2391       N  0.34622677  0.75597309  0.66529040    -0.37200
N2392       N  0.32554863  0.69628501  0.62740080    -0.39600
N2393       N  0.23452125  0.72171835  0.61082763    -0.39400
N2394       N  0.21661599  0.66938932  0.56101614    -0.37000
N2395       N  0.33272710  0.68107202  0.50775181    -0.38000
N2396       N  0.35078693  0.73290519  0.55785948    -0.39700
C2397       C  0.04979369  0.20463066  0.29489180    -0.04600
C2398       C  0.06925462  0.21919482  0.28556158     0.09500
C2399       C  0.07529889  0.24164399  0.29736805    -0.02000
C2400       C  0.06086348  0.25029981  0.31726501    -0.00300
C2401       C  0.04026399  0.23659192  0.32538675    -0.03900
C2402       C  0.03531367  0.21332949  0.31468173     0.03100
C2403       C  0.08273167  0.21125486  0.26271560     0.10000
C2404       C  0.09583998  0.25621280  0.28839828     0.35900
C2405       C  0.01455230  0.19886698  0.32340290     0.39300
C2406       C  0.07303960  0.21685633  0.23925943    -0.04300
C2407       C  0.08515836  0.20868100  0.21766810     0.02900
C2408       C  0.10698492  0.19423901  0.21926732    -0.03900
C2409       C  0.11693599  0.18925910  0.24306678    -0.00100
C2410       C  0.10491696  0.19788484  0.26451655    -0.02700
C2411       C  0.05045515  0.23112997  0.23741460     0.36600
C2412       C  0.13915937  0.17458879  0.24594370     0.40200
C2413       C  0.07534453  0.21586175  0.19387324     0.39300
C2414       C  0.11523024  0.19278972  0.28865557     0.36300
C2415       C  0.04420932  0.18102478  0.28357428     0.37000
C2416       C  0.06646329  0.27384132  0.32867192     0.40200
N2417       N  0.06748547  0.22166394  0.17492367    -0.37900
N2418       N  0.03243340  0.24250556  0.23601573    -0.39400
N2419       N  0.15692620  0.16298155  0.24837399    -0.37200
N2420       N  0.12344828  0.18885692  0.30793347    -0.39600
N2421       N  0.11227502  0.26775812  0.28117537    -0.39400
N2422       N  0.07094999  0.29259414  0.33785938    -0.37000
N2423       N  0.99795349  0.18742809  0.33042742    -0.38000
N2424       N  0.03978308  0.16218125  0.27454140    -0.39700
C2425       C  0.06650447  0.19565129  0.98124296    -0.04600
C2426       C  0.07559124  0.21020864  0.00088829     0.09500
C2427       C  0.07470728  0.23612058  0.99919933    -0.02000
C2428       C  0.06341707  0.24734681  0.97875544    -0.00300
C2429       C  0.05162929  0.23277806  0.96053208    -0.03900
C2430       C  0.05420236  0.20689071  0.96123355     0.03100
C2431       C  0.08558106  0.19846886  0.02375065     0.10000
C2432       C  0.08426782  0.25123139  0.01916316     0.35900
C2433       C  0.04295845  0.19177823  0.94220753     0.39300
C2434       C  0.11122254  0.19836383  0.02818496    -0.04300
C2435       C  0.12062315  0.18925406  0.05058650     0.02900
C2436       C  0.10444008  0.17929504  0.06857190    -0.03900
C2437       C  0.07868228  0.17925126  0.06395533    -0.00100
C2438       C  0.06931530  0.18898964  0.04170867    -0.02700
C2439       C  0.12794191  0.20792934  0.00965336     0.36600
C2440       C  0.06177674  0.16870511  0.08174987     0.40200
C2441       C  0.14698070  0.19118168  0.05536216     0.39300
C2442       C  0.04285960  0.18954269  0.03735143     0.36300
C2443       C  0.06920023  0.16909535  0.98206526     0.37000
C2444       C  0.06277552  0.27403092  0.97703489     0.40200
N2445       N  0.16799194  0.19282953  0.05907004    -0.37900
N2446       N  0.14120222  0.21560919  0.99484832    -0.39400
N2447       N  0.04827938  0.16029576  0.09594139    -0.37200
N2448       N  0.02176300  0.18999958  0.03383201    -0.39600
N2449       N  0.09183187  0.26322451  0.03515213    -0.39400
N2450       N  0.06221907  0.29529606  0.97563649    -0.37000
N2451       N  0.03401684  0.17972456  0.92698515    -0.38000
N2452       N  0.07146469  0.14790726  0.98273857    -0.39700
C2453       C  0.30742227  0.93633008  0.29498968    -0.04600
C2454       C  0.28995477  0.92584725  0.27865732     0.09500
C2455       C  0.29365775  0.92782341  0.25305561    -0.02000
C2456       C  0.31323280  0.94231189  0.24386245    -0.00300
C2457       C  0.32923693  0.95495349  0.26022944    -0.03900
C2458       C  0.32709849  0.95076904  0.28579348     0.03100
C2459       C  0.26645527  0.91485059  0.28835259     0.10000
C2460       C  0.27654368  0.91590617  0.23622060     0.35900
C2461       C  0.34414678  0.96266894  0.30269862     0.39300
C2462       C  0.24566058  0.93008094  0.29225438    -0.04300
C2463       C  0.22360243  0.92015275  0.30198880     0.02900
C2464       C  0.22224183  0.89489015  0.30816112    -0.03900
C2465       C  0.24285643  0.87952288  0.30345020    -0.00100
C2466       C  0.26484265  0.88948013  0.29357780    -0.02700
C2467       C  0.24724317  0.95618095  0.28674424     0.36600
C2468       C  0.24134243  0.85332988  0.30849717     0.40200
C2469       C  0.20273432  0.93624021  0.30665969     0.39300
C2470       C  0.28596858  0.87371707  0.28905301     0.36300
C2471       C  0.30433877  0.93328491  0.32131056     0.37000
C2472       C  0.31621955  0.94520812  0.21750804     0.40200
N2473       N  0.18610055  0.94911763  0.31030876    -0.37900
N2474       N  0.24864250  0.97699426  0.28238042    -0.39400
N2475       N  0.24005865  0.83243402  0.31249529    -0.37200
N2476       N  0.30284966  0.86115944  0.28542733    -0.39600
N2477       N  0.26286051  0.90634216  0.22284862    -0.39400
N2478       N  0.31854745  0.94740757  0.19645790    -0.37000
N2479       N  0.35784722  0.97211828  0.31613614    -0.38000
N2480       N  0.30182310  0.93082987  0.34231368    -0.39700
C2481       C  0.29060821  0.05189672  0.20104358    -0.04600
C2482       C  0.28453533  0.07104159  0.21758477     0.09500
C2483       C  0.29970591  0.07538443  0.23834621    -0.02000
C2484       C  0.31972612  0.05945166  0.24352853    -0.00300
C2485       C  0.32486006  0.03938055  0.22772710    -0.03900
C2486       C  0.31083413  0.03631768  0.20594713     0.03100
C2487       C  0.26155994  0.08586958  0.21323769     0.10000
C2488       C  0.29421872  0.09579184  0.25469984     0.35900
C2489       C  0.31683822  0.01661461  0.18887945     0.39300
C2490       C  0.23862955  0.07750429  0.22234805    -0.04300
C2491       C  0.21638869  0.08905117  0.21502885     0.02900
C2492       C  0.21689610  0.10924543  0.19861073    -0.03900
C2493       C  0.24017125  0.11842676  0.19062909    -0.00100
C2494       C  0.26230652  0.10672993  0.19792071    -0.02700
C2495       C  0.23798005  0.05657962  0.23887649     0.36600
C2496       C  0.24154957  0.13904107  0.17370579     0.40200
C2497       C  0.19301495  0.08015287  0.22453160     0.39300
C2498       C  0.28594059  0.11559584  0.18896916     0.36300
C2499       C  0.27538539  0.04768148  0.17940308     0.37000
C2500       C  0.33425417  0.06290688  0.26573221     0.40200
N2501       N  0.17436100  0.07304234  0.23211644    -0.37900
N2502       N  0.23757296  0.03991693  0.25211152    -0.39400
N2503       N  0.24272623  0.15548686  0.16023745    -0.37200
N2504       N  0.30481634  0.12261479  0.18185517    -0.39600
N2505       N  0.28987306  0.11214633  0.26770523    -0.39400
N2506       N  0.34590195  0.06558846  0.28343853    -0.37000
N2507       N  0.32165603  0.00100163  0.17515624    -0.38000
N2508       N  0.26311959  0.04434461  0.16222872    -0.39700
C2509       C  0.19496374  0.98953636  0.03969586    -0.04600
C2510       C  0.20572890  0.00175198  0.06009514     0.09500
C2511       C  0.22866098  0.99341043  0.06938048    -0.02000
C2512       C  0.24136057  0.97401036  0.05754334    -0.00300
C2513       C  0.23111453  0.96250716  0.03650601    -0.03900
C2514       C  0.20759933  0.96994577  0.02798684     0.03100
C2515       C  0.19356590  0.02392607  0.07155125     0.10000
C2516       C  0.23960494  0.00544133  0.09067262     0.35900
C2517       C  0.19702033  0.95819561  0.00637604     0.39300
C2518       C  0.18229454  0.02201475  0.09477976    -0.04300
C2519       C  0.17427538  0.04333333  0.10745992     0.02900
C2520       C  0.17623874  0.06713854  0.09644370    -0.03900
C2521       C  0.18626928  0.06859187  0.07224640    -0.00100
C2522       C  0.19514279  0.04719239  0.06015624    -0.02700
C2523       C  0.17924932  0.99786101  0.10580588     0.36600
C2524       C  0.18759193  0.09194915  0.05938949     0.40200
C2525       C  0.16513277  0.04030454  0.13237576     0.39300
C2526       C  0.20632107  0.04911629  0.03596673     0.36300
C2527       C  0.17124213  0.99763820  0.03030931     0.37000
C2528       C  0.26552602  0.96655639  0.06638022     0.40200
N2529       N  0.15801395  0.03769381  0.15227968    -0.37900
N2530       N  0.17676033  0.97859147  0.11452470    -0.39400
N2531       N  0.18875848  0.11050232  0.04899804    -0.37200
N2532       N  0.21515797  0.05055019  0.01663805    -0.39600
N2533       N  0.24816419  0.01504390  0.10773600    -0.39400
N2534       N  0.28483664  0.96069799  0.07342398    -0.37000
N2535       N  0.18870571  0.94874077  0.98911152    -0.38000
N2536       N  0.15237251  0.00417864  0.02270152    -0.39700
C2537       C  0.25061404  0.29563141  0.08976282    -0.04600
C2538       C  0.22696307  0.28529290  0.08554152     0.09500
C2539       C  0.21124552  0.29615574  0.06779119    -0.02000
C2540       C  0.21962713  0.31614074  0.05347306    -0.00300
C2541       C  0.24405304  0.32490193  0.05609948    -0.03900
C2542       C  0.25928878  0.31509365  0.07479487     0.03100
C2543       C  0.21901125  0.26212130  0.09856160     0.10000
C2544       C  0.18687144  0.28591098  0.06329651     0.35900
C2545       C  0.28422358  0.32441715  0.07793157     0.39300
C2546       C  0.19998428  0.26283985  0.11626252    -0.04300
C2547       C  0.19038265  0.24075590  0.12618276     0.02900
C2548       C  0.20031512  0.21754660  0.11912812    -0.03900
C2549       C  0.22038907  0.21704682  0.10244337    -0.00100
C2550       C  0.22939395  0.23913854  0.09195908    -0.02700
C2551       C  0.18990045  0.28642786  0.12386870     0.36600
C2552       C  0.23215937  0.19384105  0.09629917     0.40200
C2553       C  0.16931307  0.24210442  0.14262672     0.39300
C2554       C  0.24899347  0.23817635  0.07379826     0.36300
C2555       C  0.26625644  0.28571642  0.10902974     0.37000
C2556       C  0.20356736  0.32691604  0.03500127     0.40200
N2557       N  0.15246462  0.24324619  0.15567389    -0.37900
N2558       N  0.18184491  0.30525724  0.12984989    -0.39400
N2559       N  0.24164616  0.17534939  0.09147742    -0.37200
N2560       N  0.26465245  0.23750230  0.05933337    -0.39600
N2561       N  0.16742789  0.27772399  0.05972486    -0.39400
N2562       N  0.19084678  0.33567422  0.02028828    -0.37000
N2563       N  0.30413112  0.33185748  0.08041452    -0.38000
N2564       N  0.27871187  0.27777000  0.12441883    -0.39700
C2565       C  0.02723698  0.90901066  0.32724348    -0.04600
C2566       C  0.02699363  0.93040438  0.31262886     0.09500
C2567       C  0.04953690  0.94196582  0.30644761    -0.02000
C2568       C  0.07222003  0.93231216  0.31500281    -0.00300
C2569       C  0.07254674  0.91098876  0.32989630    -0.03900
C2570       C  0.04987959  0.89921411  0.33571638     0.03100
C2571       C  0.00301260  0.94104611  0.30376478     0.10000
C2572       C  0.04929274  0.96400061  0.29140123     0.35900
C2573       C  0.04981622  0.87639127  0.34957981     0.39300
C2574       C  0.99064406  0.95898702  0.31800448    -0.04300
C2575       C  0.96999789  0.97151871  0.30822055     0.02900
C2576       C  0.96188503  0.96643976  0.28400487    -0.03900
C2577       C  0.97317150  0.94726719  0.27046960    -0.00100
C2578       C  0.99353586  0.93443700  0.28042302    -0.02700
C2579       C  0.99995853  0.96533930  0.34225939     0.36600
C2580       C  0.96461501  0.94173852  0.24573155     0.40200
C2581       C  0.95794528  0.99064430  0.32249628     0.39300
C2582       C  0.00538193  0.91508634  0.26628965     0.36300
C2583       C  0.00409083  0.89708932  0.33349137     0.37000
C2584       C  0.09515846  0.94473594  0.30896719     0.40200
N2585       N  0.94825147  0.00585922  0.33389189    -0.37900
N2586       N  0.00750942  0.97038720  0.36158107    -0.39400
N2587       N  0.95776202  0.93747379  0.22597108    -0.37200
N2588       N  0.01479273  0.89958162  0.25504965    -0.39600
N2589       N  0.04900548  0.98158634  0.27941046    -0.39400
N2590       N  0.11347984  0.95461597  0.30415078    -0.37000
N2591       N  0.04975891  0.85813488  0.36053875    -0.38000
N2592       N  0.98557818  0.88766126  0.33847254    -0.39700
C2593       C  0.98078371  0.05172161  0.19270473    -0.04600
C2594       C  0.00044942  0.06280624  0.20591930     0.09500
C2595       C  0.99923413  0.06391943  0.23186620    -0.02000
C2596       C  0.97934074  0.05294256  0.24450714    -0.00300
C2597       C  0.96079238  0.03983717  0.23146833    -0.03900
C2598       C  0.96102236  0.04024889  0.20543664     0.03100
C2599       C  0.02240672  0.07387130  0.19292998     0.10000
C2600       C  0.01907803  0.07558420  0.24565982     0.35900
C2601       C  0.94144358  0.02807659  0.19178401     0.39300
C2602       C  0.02475698  0.09968129  0.19146312    -0.04300
C2603       C  0.04678694  0.11048063  0.18269699     0.02900
C2604       C  0.06680230  0.09556454  0.17462358    -0.03900
C2605       C  0.06402959  0.06960402  0.17525243    -0.00100
C2606       C  0.04197162  0.05885186  0.18442043    -0.02700
C2607       C  0.00449979  0.11521528  0.19954748     0.36600
C2608       C  0.08356047  0.05386818  0.16599938     0.40200
C2609       C  0.04903071  0.13713691  0.18315388     0.39300
C2610       C  0.03945571  0.03226983  0.18540096     0.36300
C2611       C  0.98122740  0.05161191  0.16603243     0.37000
C2612       C  0.97838912  0.05435025  0.27118497     0.40200
N2613       N  0.05066127  0.15839617  0.18356070    -0.37900
N2614       N  0.98834917  0.12756627  0.20604879    -0.39400
N2615       N  0.09904024  0.04118674  0.15857054    -0.37200
N2616       N  0.03733089  0.01106117  0.18610785    -0.39600
N2617       N  0.03497384  0.08488961  0.25654843    -0.39400
N2618       N  0.97763917  0.05541981  0.29245439    -0.37000
N2619       N  0.92566536  0.01851735  0.18094065    -0.38000
N2620       N  0.98158639  0.05147800  0.14472860    -0.39700
C2621       C  0.46368166  0.93708481  0.69920315    -0.04600
C2622       C  0.48382912  0.92244975  0.70693299     0.09500
C2623       C  0.48149298  0.89655811  0.70670638    -0.02000
C2624       C  0.45922982  0.88536101  0.69883023    -0.00300
C2625       C  0.43930566  0.89995931  0.69008250    -0.03900
C2626       C  0.44172903  0.92595728  0.69042869     0.03100
C2627       C  0.50734912  0.93452085  0.71557971     0.10000
C2628       C  0.50212270  0.88140739  0.71453511     0.35900
C2629       C  0.42202111  0.94141683  0.68099652     0.39300
C2630       C  0.51329865  0.93517545  0.74091464    -0.04300
C2631       C  0.53379116  0.94898548  0.74929354     0.02900
C2632       C  0.54807377  0.96288733  0.73254531    -0.03900
C2633       C  0.54289656  0.96124027  0.70710276    -0.00100
C2634       C  0.52285796  0.94676922  0.69862226    -0.02700
C2635       C  0.49749051  0.92281621  0.75854076     0.36600
C2636       C  0.55695013  0.97597319  0.68984659     0.40200
C2637       C  0.53939803  0.95012118  0.77541813     0.39300
C2638       C  0.51744504  0.94535282  0.67249125     0.36300
C2639       C  0.46555084  0.96374352  0.70036704     0.37000
C2640       C  0.45666416  0.85879386  0.70067082     0.40200
N2641       N  0.54390036  0.95115637  0.79623675    -0.37900
N2642       N  0.48487055  0.91296498  0.77260094    -0.39400
N2643       N  0.56805465  0.98787575  0.67610835    -0.37200
N2644       N  0.51298310  0.94424223  0.65166849    -0.39600
N2645       N  0.51857914  0.86936107  0.72084438    -0.39400
N2646       N  0.45463893  0.83762420  0.70228316    -0.37000
N2647       N  0.40632305  0.95374435  0.67342860    -0.38000
N2648       N  0.46709635  0.98499679  0.70129790    -0.39700
C2649       C  0.30898432  0.04077437  0.92960053    -0.04600
C2650       C  0.32565954  0.02084635  0.93172887     0.09500
C2651       C  0.35000369  0.02352439  0.92280577    -0.02000
C2652       C  0.35768284  0.04600313  0.91211659    -0.00300
C2653       C  0.34101555  0.06605050  0.91013714    -0.03900
C2654       C  0.31654767  0.06316428  0.91874897     0.03100
C2655       C  0.31761910  0.99761403  0.94451671     0.10000
C2656       C  0.36717454  0.00311361  0.92470748     0.35900
C2657       C  0.29875052  0.08287367  0.91551869     0.39300
C2658       C  0.30036693  0.98150717  0.93327015    -0.04300
C2659       C  0.28884920  0.96274788  0.94717891     0.02900
C2660       C  0.29511642  0.95944132  0.97220361    -0.03900
C2661       C  0.31424369  0.97391486  0.98265199    -0.00100
C2662       C  0.32523847  0.99308759  0.96897300    -0.02700
C2663       C  0.29369359  0.98497784  0.90765262     0.36600
C2664       C  0.32175251  0.96984425  0.00797270     0.40200
C2665       C  0.26914183  0.94816539  0.93633593     0.39300
C2666       C  0.34342430  0.00906715  0.98051599     0.36300
C2667       C  0.28392836  0.03824147  0.93871838     0.37000
C2668       C  0.38297642  0.04861932  0.90367700     0.40200
N2669       N  0.25328935  0.93656920  0.92784910    -0.37900
N2670       N  0.28837812  0.98772681  0.88719602    -0.39400
N2671       N  0.32778857  0.96665117  0.02816496    -0.37200
N2672       N  0.35798074  0.02184009  0.98960868    -0.39600
N2673       N  0.38090275  0.98686198  0.92633531    -0.39400
N2674       N  0.40315762  0.05068259  0.89696382    -0.37000
N2675       N  0.28455501  0.09857383  0.91282298    -0.38000
N2676       N  0.26392944  0.03610887  0.94591715    -0.39700
C2677       C  0.29499638  0.23987723  0.93602499    -0.04600
C2678       C  0.30593704  0.26257740  0.92937821     0.09500
C2679       C  0.32362161  0.26303148  0.91035424    -0.02000
C2680       C  0.33074845  0.24094606  0.89845240    -0.00300
C2681       C  0.31992752  0.21807615  0.90519028    -0.03900
C2682       C  0.30189558  0.21776986  0.92398730     0.03100
C2683       C  0.29953777  0.28571704  0.94334057     0.10000
C2684       C  0.33473652  0.28628509  0.90326238     0.35900
C2685       C  0.29008926  0.19476990  0.93071817     0.39300
C2686       C  0.31559173  0.29467174  0.96188919    -0.04300
C2687       C  0.30794932  0.31394912  0.97766374     0.02900
C2688       C  0.28427899  0.32458048  0.97490800    -0.03900
C2689       C  0.26898016  0.31687303  0.95523642    -0.00100
C2690       C  0.27665893  0.29762511  0.93940093    -0.02700
C2691       C  0.33963367  0.28339037  0.96532622     0.36600
C2692       C  0.24465593  0.32767674  0.95232782     0.40200
C2693       C  0.32396185  0.32209562  0.99755133     0.39300
C2694       C  0.26071498  0.28951291  0.91947963     0.36300
C2695       C  0.27681396  0.23927604  0.95559763     0.37000
C2696       C  0.35020331  0.24174394  0.88009650     0.40200
N2697       N  0.33667430  0.32856583  0.01347732    -0.37900
N2698       N  0.35887228  0.27445979  0.96791348    -0.39400
N2699       N  0.22522920  0.33630885  0.95016976    -0.37200
N2700       N  0.24801249  0.28304856  0.90354643    -0.39600
N2701       N  0.34363323  0.30483679  0.89766119    -0.39400
N2702       N  0.36576750  0.24237767  0.86552357    -0.37000
N2703       N  0.28064187  0.17641723  0.93607577    -0.38000
N2704       N  0.26228032  0.23893200  0.97119217    -0.39700
C2705       C  0.43899437  0.16474575  0.97788552    -0.04600
C2706       C  0.44616466  0.18958005  0.98030337     0.09500
C2707       C  0.44300703  0.20581745  0.96029991    -0.02000
C2708       C  0.43215328  0.19741406  0.93813661    -0.00300
C2709       C  0.42309804  0.17297567  0.93630791    -0.03900
C2710       C  0.42716125  0.15651780  0.95617339     0.03100
C2711       C  0.45729403  0.19879126  0.00385710     0.10000
C2712       C  0.45041124  0.23141222  0.96282449     0.35900
C2713       C  0.41949850  0.13094151  0.95426069     0.39300
C2714       C  0.48299071  0.19704210  0.00772329    -0.04300
C2715       C  0.49393012  0.20858068  0.02832271     0.02900
C2716       C  0.47922173  0.22212649  0.04510680    -0.03900
C2717       C  0.45328375  0.22220892  0.04224642    -0.00100
C2718       C  0.44234559  0.21051481  0.02166046    -0.02700
C2719       C  0.49823393  0.18405696  0.99000300     0.36600
C2720       C  0.43799692  0.23549853  0.05968897     0.40200
C2721       C  0.52050009  0.20726063  0.03182781     0.39300
C2722       C  0.41577019  0.21121603  0.01828901     0.36300
C2723       C  0.44374300  0.14772516  0.99787923     0.37000
C2724       C  0.42981376  0.21422580  0.91755366     0.40200
N2725       N  0.54168966  0.20632531  0.03461153    -0.37900
N2726       N  0.51033619  0.17363830  0.97585698    -0.39400
N2727       N  0.42585981  0.24607907  0.07368652    -0.37200
N2728       N  0.39455813  0.21172177  0.01558132    -0.39600
N2729       N  0.45613859  0.25186009  0.96498037    -0.39400
N2730       N  0.42826942  0.22758105  0.90105182    -0.37000
N2731       N  0.41332860  0.11055780  0.95281814    -0.38000
N2732       N  0.44775355  0.13417825  0.01380199    -0.39700
C2733       C  0.21002476  0.06253070  0.80595325    -0.04600
C2734       C  0.22212717  0.07849837  0.78937310     0.09500
C2735       C  0.21273061  0.08118851  0.76524993    -0.02000
C2736       C  0.19275614  0.06643595  0.75712792    -0.00300
C2737       C  0.18181127  0.04920585  0.77319866    -0.03900
C2738       C  0.18977234  0.04811904  0.79794039     0.03100
C2739       C  0.24562029  0.09129186  0.79693738     0.10000
C2740       C  0.22417853  0.09859482  0.74859540     0.35900
C2741       C  0.17772378  0.03134572  0.81484305     0.39300
C2742       C  0.26868815  0.08156518  0.78978585    -0.04300
C2743       C  0.29093062  0.09281452  0.79770899     0.02900
C2744       C  0.29044255  0.11347274  0.81386562    -0.03900
C2745       C  0.26701857  0.12334121  0.82067692    -0.00100
C2746       C  0.24488456  0.11253196  0.81186175    -0.02700
C2747       C  0.26948484  0.05953164  0.77458442     0.36600
C2748       C  0.26523949  0.14397729  0.83764146     0.40200
C2749       C  0.31422873  0.08316138  0.78870432     0.39300
C2750       C  0.22114491  0.12309724  0.81835919     0.36300
C2751       C  0.21919873  0.06007539  0.83093299     0.37000
C2752       C  0.18407880  0.06817014  0.73191874     0.40200
N2753       N  0.33276419  0.07542562  0.78143622    -0.37900
N2754       N  0.27004784  0.04191614  0.76253207    -0.39400
N2755       N  0.26366407  0.16040422  0.85119402    -0.37200
N2756       N  0.20217773  0.13150413  0.82343754    -0.39600
N2757       N  0.23333591  0.11253158  0.73535268    -0.39400
N2758       N  0.17707432  0.06950600  0.71182041    -0.37000
N2759       N  0.16797388  0.01804338  0.82831694    -0.38000
N2760       N  0.22658842  0.05814410  0.85084493    -0.39700
C2761       C  0.46700801  0.06551127  0.81288275    -0.04600
C2762       C  0.48724143  0.08061804  0.80644400     0.09500
C2763       C  0.48530459  0.10634722  0.80910131    -0.02000
C2764       C  0.46314468  0.11705097  0.81765392    -0.00300
C2765       C  0.44275167  0.10197352  0.82456748    -0.03900
C2766       C  0.44496570  0.07604573  0.82208944     0.03100
C2767       C  0.51007758  0.06946236  0.79542778     0.10000
C2768       C  0.50626190  0.12183493  0.80288418     0.35900
C2769       C  0.42488843  0.05998031  0.82949561     0.39300
C2770       C  0.51355477  0.07004936  0.76968432    -0.04300
C2771       C  0.53339003  0.05714856  0.75889169     0.02900
C2772       C  0.54981723  0.04340555  0.77372828    -0.03900
C2773       C  0.54757072  0.04454163  0.79960526    -0.00100
C2774       C  0.52770982  0.05751722  0.81043657    -0.02700
C2775       C  0.49599675  0.08299591  0.75420992     0.36600
C2776       C  0.56484695  0.03113668  0.81497512     0.40200
C2777       C  0.53623145  0.05693043  0.73233241     0.39300
C2778       C  0.52483344  0.05782056  0.83696296     0.36300
C2779       C  0.46888474  0.03900780  0.80984905     0.37000
C2780       C  0.46131093  0.14374268  0.81836880     0.40200
N2781       N  0.53849907  0.05668527  0.71115083    -0.37900
N2782       N  0.48196631  0.09339093  0.74195062    -0.39400
N2783       N  0.57872820  0.02047034  0.82716974    -0.37200
N2784       N  0.52249423  0.05802017  0.85813665    -0.39600
N2785       N  0.52302439  0.13410386  0.79792527    -0.39400
N2786       N  0.45996486  0.16502465  0.81887581    -0.37000
N2787       N  0.40888385  0.04711547  0.83534875    -0.38000
N2788       N  0.47044711  0.01787367  0.80742503    -0.39700
C2789       C  0.42298503  0.22931831  0.77133609    -0.04600
C2790       C  0.41390224  0.22141553  0.74820855     0.09500
C2791       C  0.39323419  0.20562159  0.74717574    -0.02000
C2792       C  0.38285721  0.19624276  0.76906655    -0.00300
C2793       C  0.39281689  0.20305782  0.79236916    -0.03900
C2794       C  0.41225435  0.22051502  0.79329271     0.03100
C2795       C  0.42746255  0.22818631  0.72512369     0.10000
C2796       C  0.38314642  0.19842655  0.72343145     0.35900
C2797       C  0.42108996  0.22972962  0.81683024     0.39300
C2798       C  0.44283069  0.21061546  0.71352588    -0.04300
C2799       C  0.45842762  0.21773021  0.69403448     0.02900
C2800       C  0.45933612  0.24257439  0.68650854    -0.03900
C2801       C  0.44295558  0.25983141  0.69709602    -0.00100
C2802       C  0.42665041  0.25250903  0.71599177    -0.02700
C2803       C  0.44364009  0.18550883  0.72259394     0.36600
C2804       C  0.44393901  0.28540456  0.68952197     0.40200
C2805       C  0.47478155  0.19982391  0.68273023     0.39300
C2806       C  0.40961813  0.27013741  0.72667127     0.36300
C2807       C  0.44400562  0.24591023  0.77253522     0.37000
C2808       C  0.36278832  0.17854040  0.76725622     0.40200
N2809       N  0.48783967  0.18559985  0.67364449    -0.37900
N2810       N  0.44425092  0.16550047  0.72987383    -0.39400
N2811       N  0.44484702  0.30584406  0.68358149    -0.37200
N2812       N  0.39594989  0.28413631  0.73519753    -0.39600
N2813       N  0.37516080  0.19265406  0.70448473    -0.39400
N2814       N  0.34677788  0.16444519  0.76573551    -0.37000
N2815       N  0.42804278  0.23717715  0.83560163    -0.38000
N2816       N  0.46075765  0.25916418  0.77342850    -0.39700
C2817       C  0.71198636  0.24169131  0.89547645    -0.04600
C2818       C  0.71869255  0.23961414  0.92047325     0.09500
C2819       C  0.71558054  0.26004163  0.93636129    -0.02000
C2820       C  0.70494030  0.28209991  0.92754159    -0.00300
C2821       C  0.69748580  0.28398278  0.90265013    -0.03900
C2822       C  0.70136927  0.26374135  0.88659051     0.03100
C2823       C  0.72762063  0.21553178  0.93069387     0.10000
C2824       C  0.72283080  0.25805908  0.96201236     0.35900
C2825       C  0.69448810  0.26561339  0.86083743     0.39300
C2826       C  0.75311499  0.21019599  0.93175833    -0.04300
C2827       C  0.76160716  0.18984878  0.94555176     0.02900
C2828       C  0.74462667  0.17469496  0.95824896    -0.03900
C2829       C  0.71904780  0.17850257  0.95490188    -0.00100
C2830       C  0.71057084  0.19897787  0.94132155    -0.02700
C2831       C  0.77061473  0.22634062  0.91965261     0.36600
C2832       C  0.70148904  0.16234943  0.96692706     0.40200
C2833       C  0.78790116  0.18517629  0.94781791     0.39300
C2834       C  0.68430638  0.20389725  0.93947017     0.36300
C2835       C  0.71574605  0.22095405  0.87902152     0.37000
C2836       C  0.70031294  0.30229376  0.94447309     0.40200
N2837       N  0.80886706  0.18138935  0.94965980    -0.37900
N2838       N  0.78457416  0.23920312  0.90993406    -0.39400
N2839       N  0.68754490  0.14935933  0.97649458    -0.37200
N2840       N  0.66336398  0.20794436  0.93801607    -0.39600
N2841       N  0.72866221  0.25634924  0.98244770    -0.39400
N2842       N  0.69648587  0.31833729  0.95802393    -0.37000
N2843       N  0.68896738  0.26713311  0.84029972    -0.38000
N2844       N  0.71882621  0.20437836  0.86593176    -0.39700
C2845       C  0.53586147  0.32377778  0.02205986    -0.04600
C2846       C  0.55907256  0.31472306  0.01441222     0.09500
C2847       C  0.57122550  0.29686327  0.02890541    -0.02000
C2848       C  0.55910441  0.28620615  0.04926890    -0.00300
C2849       C  0.53463084  0.29304896  0.05500077    -0.03900
C2850       C  0.52361724  0.31287407  0.04225173     0.03100
C2851       C  0.57005174  0.32252429  0.99024677     0.10000
C2852       C  0.59564377  0.28842135  0.02193387     0.35900
C2853       C  0.49901099  0.32093098  0.04904891     0.39300
C2854       C  0.58923213  0.34004126  0.98961890    -0.04300
C2855       C  0.60124316  0.34551223  0.96721692     0.02900
C2856       C  0.59345214  0.33427493  0.94477461    -0.03900
C2857       C  0.57370389  0.31713666  0.94543939    -0.00100
C2858       C  0.56227832  0.31113158  0.96809386    -0.02700
C2859       C  0.59664472  0.35240019  0.01219254     0.36600
C2860       C  0.56464825  0.30605410  0.92282994     0.40200
C2861       C  0.62245283  0.36192987  0.96768545     0.39300
C2862       C  0.54256779  0.29299407  0.96874942     0.36300
C2863       C  0.52419445  0.34359114  0.00851985     0.37000
C2864       C  0.57105350  0.26683997  0.06322540     0.40200
N2865       N  0.63942304  0.37493374  0.96810270    -0.37900
N2866       N  0.60243477  0.36232424  0.03019795    -0.39400
N2867       N  0.55732527  0.29719993  0.90481903    -0.37200
N2868       N  0.52684394  0.27853683  0.96945034    -0.39600
N2869       N  0.61513588  0.28176314  0.01627984    -0.39400
N2870       N  0.58055953  0.25143210  0.07445864    -0.37000
N2871       N  0.47938179  0.32731577  0.05455812    -0.38000
N2872       N  0.51489922  0.35947284  0.99777852    -0.39700
C2873       C  0.80527720  0.43684774  0.80502022    -0.04600
C2874       C  0.78978385  0.42456845  0.78795398     0.09500
C2875       C  0.79500532  0.42629558  0.76256393    -0.02000
C2876       C  0.81459480  0.44139402  0.75423126    -0.00300
C2877       C  0.82918839  0.45488820  0.77122180    -0.03900
C2878       C  0.82481012  0.45202958  0.79669844     0.03100
C2879       C  0.76658251  0.41198672  0.79666558     0.10000
C2880       C  0.77942683  0.41340930  0.74498460     0.35900
C2881       C  0.83922359  0.46620423  0.81428419     0.39300
C2882       C  0.74407138  0.42512020  0.79710968    -0.04300
C2883       C  0.72262099  0.41443297  0.80739715     0.02900
C2884       C  0.72333986  0.39024537  0.81711953    -0.03900
C2885       C  0.74558722  0.37658170  0.81526465    -0.00100
C2886       C  0.76713125  0.38750444  0.80530719    -0.02700
C2887       C  0.74318485  0.44999980  0.78745881     0.36600
C2888       C  0.74622901  0.35107079  0.82313510     0.40200
C2889       C  0.70019266  0.42896473  0.80910211     0.39300
C2890       C  0.79000682  0.37367991  0.80417229     0.36300
C2891       C  0.80022166  0.43487520  0.83114853     0.37000
C2892       C  0.81896233  0.44410624  0.72804859     0.40200
N2893       N  0.68230234  0.44054844  0.81049360    -0.37900
N2894       N  0.74252426  0.46980674  0.77966058    -0.39400
N2895       N  0.74669324  0.33067059  0.82926774    -0.37200
N2896       N  0.80829326  0.36268165  0.80327725    -0.39600
N2897       N  0.76690285  0.40315113  0.73100932    -0.39400
N2898       N  0.82242216  0.44636132  0.70715773    -0.37000
N2899       N  0.85065925  0.47764701  0.82826829    -0.38000
N2900       N  0.79610395  0.43325579  0.85198061    -0.39700
C2901       C  0.52991953  0.40791367  0.83116849    -0.04600
C2902       C  0.53016158  0.42812012  0.81501734     0.09500
C2903       C  0.55289299  0.43874325  0.80793114    -0.02000
C2904       C  0.57534836  0.42950107  0.81741114    -0.00300
C2905       C  0.57514539  0.40961016  0.83414796    -0.03900
C2906       C  0.55227866  0.39865443  0.84072460     0.03100
C2907       C  0.50643616  0.43918724  0.80635169     0.10000
C2908       C  0.55304815  0.45942567  0.79106583     0.35900
C2909       C  0.55168354  0.37733178  0.85679928     0.39300
C2910       C  0.49566644  0.45860785  0.81988774    -0.04300
C2911       C  0.47559662  0.47177920  0.80996183     0.02900
C2912       C  0.46644560  0.46575089  0.78635667    -0.03900
C2913       C  0.47580547  0.44496846  0.77378786    -0.00100
C2914       C  0.49568590  0.43154828  0.78389493    -0.02700
C2915       C  0.50612033  0.46580533  0.84345119     0.36600
C2916       C  0.46597847  0.43842815  0.74977583     0.40200
C2917       C  0.46534398  0.49259156  0.82327096     0.39300
C2918       C  0.50577785  0.41054354  0.77079309     0.36300
C2919       C  0.50656593  0.39667924  0.83790880     0.37000
C2920       C  0.59852355  0.44102131  0.81054770     0.40200
N2921       N  0.45710879  0.50920587  0.83382771    -0.37900
N2922       N  0.51456126  0.47150757  0.86222078    -0.39400
N2923       N  0.45811849  0.43328532  0.73059928    -0.37200
N2924       N  0.51379282  0.39370209  0.76042347    -0.39600
N2925       N  0.55304682  0.47591018  0.77760130    -0.39400
N2926       N  0.61698967  0.45024837  0.80504410    -0.37000
N2927       N  0.55124504  0.36034622  0.86962497    -0.38000
N2928       N  0.48791420  0.38771394  0.84320739    -0.39700
C2929       C  0.61392712  0.30096836  0.75145403    -0.04600
C2930       C  0.59021375  0.29030279  0.75220378     0.09500
C2931       C  0.57881753  0.28633938  0.77526664    -0.02000
C2932       C  0.59036625  0.29437746  0.79732484    -0.00300
C2933       C  0.61340833  0.30682888  0.79651304    -0.03900
C2934       C  0.62558781  0.30893051  0.77338121     0.03100
C2935       C  0.57679900  0.28382699  0.72873292     0.10000
C2936       C  0.55464526  0.27476465  0.77615599     0.35900
C2937       C  0.65029071  0.31931716  0.77190041     0.39300
C2938       C  0.57394037  0.25895039  0.72157689    -0.04300
C2939       C  0.55805712  0.25263542  0.70186636     0.02900
C2940       C  0.54546311  0.27119621  0.68866383    -0.03900
C2941       C  0.54992323  0.29617868  0.69449801    -0.00100
C2942       C  0.56554013  0.30248886  0.71446270    -0.02700
C2943       C  0.58684817  0.23982018  0.73499650     0.36600
C2944       C  0.53712082  0.31532024  0.68096990     0.40200
C2945       C  0.55344990  0.22692618  0.69606406     0.39300
C2946       C  0.56925200  0.32817499  0.72094435     0.36300
C2947       C  0.62612494  0.30428136  0.72792429     0.37000
C2948       C  0.57788842  0.29057105  0.82060237     0.40200
N2949       N  0.54955779  0.20644223  0.69149253    -0.37900
N2950       N  0.59721871  0.22458732  0.74569852    -0.39400
N2951       N  0.52683531  0.33055979  0.67019146    -0.37200
N2952       N  0.57236347  0.34866937  0.72604349    -0.39600
N2953       N  0.53538838  0.26547993  0.77671455    -0.39400
N2954       N  0.56787625  0.28730376  0.83911892    -0.37000
N2955       N  0.66992629  0.32771183  0.77071057    -0.38000
N2956       N  0.63579723  0.30708538  0.70915685    -0.39700
C2957       C  0.72812551  0.51664345  0.93773217    -0.04600
C2958       C  0.70813298  0.50388434  0.94847292     0.09500
C2959       C  0.69691908  0.51342413  0.96991685    -0.02000
C2960       C  0.70677406  0.53457330  0.98154302    -0.00300
C2961       C  0.72788226  0.54632215  0.97178225    -0.03900
C2962       C  0.73794656  0.53782757  0.94934253     0.03100
C2963       C  0.69938531  0.47992086  0.93770145     0.10000
C2964       C  0.67588163  0.50079963  0.98056073     0.35900
C2965       C  0.75952370  0.54992998  0.93916416     0.39300
C2966       C  0.70735492  0.45733209  0.94784255    -0.04300
C2967       C  0.69848626  0.43472921  0.93824431     0.02900
C2968       C  0.68195124  0.43453504  0.91802218    -0.03900
C2969       C  0.67464719  0.45729536  0.90743443    -0.00100
C2970       C  0.68307259  0.47980945  0.91747003    -0.02700
C2971       C  0.72480442  0.45742307  0.96815755     0.36600
C2972       C  0.65910987  0.45770041  0.88560254     0.40200
C2973       C  0.70576771  0.41177511  0.94976423     0.39300
C2974       C  0.67495436  0.50299773  0.90699955     0.36300
C2975       C  0.73936408  0.50720271  0.91540910     0.37000
C2976       C  0.69613361  0.54345930  0.00438655     0.40200
N2977       N  0.71151688  0.39345575  0.95898957    -0.37900
N2978       N  0.73879880  0.45755022  0.98430263    -0.39400
N2979       N  0.64677850  0.45803386  0.86816434    -0.37200
N2980       N  0.66852356  0.52153321  0.89870432    -0.39600
N2981       N  0.65914538  0.49062170  0.98903351    -0.39400
N2982       N  0.68767676  0.55055953  0.02262643    -0.37000
N2983       N  0.77675767  0.55963087  0.93113226    -0.38000
N2984       N  0.74830656  0.49961824  0.89759938    -0.39700
C2985       C  0.94754664  0.31165824  0.04508095    -0.04600
C2986       C  0.93470546  0.30929966  0.02253681     0.09500
C2987       C  0.90955970  0.31581522  0.02134975    -0.02000
C2988       C  0.89705696  0.32401357  0.04264588    -0.00300
C2989       C  0.90995350  0.32698891  0.06540011    -0.03900
C2990       C  0.93550693  0.32106802  0.06619080     0.03100
C2991       C  0.94760571  0.29959393  0.00005256     0.10000
C2992       C  0.89650892  0.31398367  0.99801557     0.35900
C2993       C  0.94989711  0.32543384  0.08835836     0.39300
C2994       C  0.94259315  0.27549428  0.99141189    -0.04300
C2995       C  0.95588018  0.26577579  0.97129054     0.02900
C2996       C  0.97458166  0.27986353  0.95997392    -0.03900
C2997       C  0.97888313  0.30430258  0.96789423    -0.00100
C2998       C  0.96524282  0.31423929  0.98769079    -0.02700
C2999       C  0.92456480  0.26027643  0.00397150     0.36600
C3000       C  0.99847588  0.31863910  0.95666451     0.40200
C3001       C  0.95127988  0.24075625  0.96296983     0.39300
C3002       C  0.96994696  0.33925804  0.99592792     0.36300
C3003       C  0.97321995  0.30408923  0.04660190     0.37000
C3004       C  0.87069069  0.32865990  0.04085896     0.40200
N3005       N  0.94768144  0.22080785  0.95626316    -0.37900
N3006       N  0.91015518  0.24817023  0.01400043    -0.39400
N3007       N  0.01420653  0.32996589  0.94774822    -0.37200
N3008       N  0.97376292  0.35918298  0.00258668    -0.39600
N3009       N  0.88621166  0.31243098  0.97937436    -0.39400
N3010       N  0.84968173  0.33232884  0.03922435    -0.37000
N3011       N  0.96145665  0.32903545  0.10596641    -0.38000
N3012       N  0.99366898  0.29797850  0.04780880    -0.39700
C3013       C  0.92703589  0.26826327  0.29649059    -0.04600
C3014       C  0.92990955  0.29142954  0.28512599     0.09500
C3015       C  0.94647161  0.30883363  0.29530698    -0.02000
C3016       C  0.96165100  0.30230888  0.31541952    -0.00300
C3017       C  0.95997914  0.27851484  0.32574144    -0.03900
C3018       C  0.94188242  0.26191603  0.31690642     0.03100
C3019       C  0.91690071  0.29694470  0.26139055     0.10000
C3020       C  0.94868774  0.33303492  0.28426033     0.35900
C3021       C  0.93960510  0.23775527  0.32800085     0.39300
C3022       C  0.89450909  0.31008206  0.26138372    -0.04300
C3023       C  0.88322139  0.31684944  0.23892801     0.02900
C3024       C  0.89433572  0.31044333  0.21602631    -0.03900
C3025       C  0.91641071  0.29633549  0.21628057    -0.00100
C3026       C  0.92763064  0.28978900  0.23883557    -0.02700
C3027       C  0.88344961  0.31721839  0.28465221     0.36600
C3028       C  0.92768755  0.28828204  0.19341506     0.40200
C3029       C  0.86075415  0.33142674  0.23979435     0.39300
C3030       C  0.95063624  0.27606707  0.23891466     0.36300
C3031       C  0.90968232  0.25054396  0.28635704     0.37000
C3032       C  0.98007105  0.31951218  0.32454112     0.40200
N3033       N  0.84281379  0.34299818  0.24059161    -0.37900
N3034       N  0.87469249  0.32295189  0.30322327    -0.39400
N3035       N  0.93676082  0.28188536  0.17520824    -0.37200
N3036       N  0.96899633  0.26515432  0.23905877    -0.39600
N3037       N  0.95032339  0.35232977  0.27539491    -0.39400
N3038       N  0.99481720  0.33322417  0.33175874    -0.37000
N3039       N  0.93783428  0.21852349  0.33696922    -0.38000
N3040       N  0.89590727  0.23638189  0.27816350    -0.39700
C3041       C  0.01436717  0.43556520  0.22732919    -0.04600
C3042       C  0.00824356  0.43903479  0.20230533     0.09500
C3043       C  0.02338991  0.45432114  0.18765099    -0.02000
C3044       C  0.04321481  0.46763977  0.19842825    -0.00300
C3045       C  0.04820198  0.46553885  0.22389037    -0.03900
C3046       C  0.03425712  0.44867864  0.23803589     0.03100
C3047       C  0.98494471  0.42775656  0.19194776     0.10000
C3048       C  0.01801250  0.45691666  0.16163533     0.35900
C3049       C  0.03967756  0.44567725  0.26400821     0.39300
C3050       C  0.96312607  0.44191148  0.19022150    -0.04300
C3051       C  0.94084173  0.43126069  0.18140363     0.02900
C3052       C  0.93999502  0.40603919  0.17436382    -0.03900
C3053       C  0.96196510  0.39173889  0.17702271    -0.00100
C3054       C  0.98422425  0.40266093  0.18535610    -0.02700
C3055       C  0.96359488  0.46748456  0.19808896     0.36600
C3056       C  0.96173335  0.36535139  0.17243950     0.40200
C3057       C  0.91894648  0.44652929  0.17969154     0.39300
C3058       C  0.00646435  0.38789960  0.18757669     0.36300
C3059       C  0.99944960  0.41926888  0.24233992     0.37000
C3060       C  0.05751613  0.48465607  0.18365906     0.40200
N3061       N  0.90154491  0.45885971  0.17859514    -0.37900
N3062       N  0.96413063  0.48783706  0.20449569    -0.39400
N3063       N  0.96158342  0.34431097  0.16886878    -0.37200
N3064       N  0.02415066  0.37607291  0.18940791    -0.39600
N3065       N  0.01370040  0.45892713  0.14085958    -0.39400
N3066       N  0.06893331  0.49827348  0.17190121    -0.37000
N3067       N  0.04390890  0.44319572  0.28474105    -0.38000
N3068       N  0.98752371  0.40621563  0.25423344    -0.39700
C3069       C  0.80717117  0.24161097  0.10743561    -0.04600
C3070       C  0.79346748  0.24206140  0.08539500     0.09500
C3071       C  0.78634357  0.26492540  0.07530202    -0.02000
C3072       C  0.79353100  0.28725834  0.08678879    -0.00300
C3073       C  0.80879054  0.28700421  0.10806126    -0.03900
C3074       C  0.81506167  0.26381692  0.11860946     0.03100
C3075       C  0.78760915  0.21843432  0.07212740     0.10000
C3076       C  0.77213054  0.26543738  0.05263098     0.35900
C3077       C  0.83058854  0.26235232  0.14038444     0.39300
C3078       C  0.76369921  0.20805025  0.07330917    -0.04300
C3079       C  0.75763951  0.18733124  0.05866793     0.02900
C3080       C  0.77557053  0.17665726  0.04310210    -0.03900
C3081       C  0.80000334  0.18576728  0.04352928    -0.00100
C3082       C  0.80597104  0.20671370  0.05782093    -0.02700
C3083       C  0.74519442  0.21914330  0.08907991     0.36600
C3084       C  0.81867891  0.17425021  0.02823109     0.40200
C3085       C  0.73264060  0.17767329  0.05863010     0.39300
C3086       C  0.83075151  0.21689197  0.05697524     0.36300
C3087       C  0.81364152  0.21806839  0.11829106     0.37000
C3088       C  0.78467767  0.31042960  0.07689401     0.40200
N3089       N  0.71271257  0.16990548  0.05853589    -0.37900
N3090       N  0.73045705  0.22800394  0.10171214    -0.39400
N3091       N  0.83353566  0.16495333  0.01605728    -0.37200
N3092       N  0.85050868  0.22505232  0.05633612    -0.39600
N3093       N  0.76085607  0.26581371  0.03450564    -0.39400
N3094       N  0.77747114  0.32889353  0.06907219    -0.37000
N3095       N  0.84292924  0.26101419  0.15776441    -0.38000
N3096       N  0.81875864  0.19924261  0.12683725    -0.39700
C3097       C  0.84248052  0.48153559  0.08616413    -0.04600
C3098       C  0.82060827  0.48288788  0.07220652     0.09500
C3099       C  0.80570159  0.46172417  0.06925476    -0.02000
C3100       C  0.81247807  0.43927634  0.08045268    -0.00300
C3101       C  0.83453539  0.43771164  0.09453434    -0.03900
C3102       C  0.84963595  0.45906290  0.09701788     0.03100
C3103       C  0.81353887  0.50636970  0.05969953     0.10000
C3104       C  0.78319864  0.46319558  0.05472446     0.35900
C3105       C  0.87306935  0.45797281  0.11002921     0.39300
C3106       C  0.81822567  0.50920964  0.03435430    -0.04300
C3107       C  0.80842953  0.52953011  0.02162558     0.02900
C3108       C  0.79320166  0.54674202  0.03401722    -0.03900
C3109       C  0.79046573  0.54513281  0.05980154    -0.00100
C3110       C  0.80070123  0.52496571  0.07265019    -0.02700
C3111       C  0.83184976  0.49037404  0.02110054     0.36600
C3112       C  0.77576046  0.56326438  0.07281327     0.40200
C3113       C  0.81275478  0.53196854  0.99537006     0.39300
C3114       C  0.79687557  0.52256356  0.09894230     0.36300
C3115       C  0.85769209  0.50337427  0.08924805     0.37000
C3116       C  0.79619402  0.41814309  0.07795743     0.40200
N3117       N  0.81609598  0.53386236  0.97442244    -0.37900
N3118       N  0.84250918  0.47520774  0.01053113    -0.39400
N3119       N  0.76407537  0.57780273  0.08317969    -0.37200
N3120       N  0.79390287  0.52059882  0.11993828    -0.39600
N3121       N  0.76532390  0.46446926  0.04305898    -0.39400
N3122       N  0.78314021  0.40134753  0.07587537    -0.37000
N3123       N  0.89178211  0.45716585  0.12035336    -0.38000
N3124       N  0.86973261  0.52083657  0.09181453    -0.39700
C3125       C  0.76967831  0.42411245  0.22232074    -0.04600
C3126       C  0.74650405  0.41956303  0.21120183     0.09500
C3127       C  0.74463956  0.40203017  0.19210295    -0.02000
C3128       C  0.76594939  0.38965612  0.18357943    -0.00300
C3129       C  0.78947543  0.39485426  0.19406616    -0.03900
C3130       C  0.79108669  0.41194134  0.21374286     0.03100
C3131       C  0.72451400  0.43481253  0.21830655     0.10000
C3132       C  0.72080302  0.39731798  0.18072858     0.35900
C3133       C  0.81474115  0.41693924  0.22534220     0.39300
C3134       C  0.72088421  0.45794090  0.20714440    -0.04300
C3135       C  0.70173870  0.47355555  0.21526006     0.02900
C3136       C  0.68603739  0.46625918  0.23479531    -0.03900
C3137       C  0.68875828  0.44244341  0.24491215    -0.00100
C3138       C  0.70801105  0.42680878  0.23673311    -0.02700
C3139       C  0.73751894  0.46602621  0.18784449     0.36600
C3140       C  0.67261264  0.43452935  0.26462555     0.40200
C3141       C  0.69872199  0.49753285  0.20390606     0.39300
C3142       C  0.71154410  0.40287249  0.24793737     0.36300
C3143       C  0.77146429  0.44169327  0.24241785     0.37000
C3144       C  0.76366436  0.37258536  0.16305973     0.40200
N3145       N  0.69658226  0.51665680  0.19479978    -0.37900
N3146       N  0.75086430  0.47245035  0.17252270    -0.39400
N3147       N  0.65964817  0.42822283  0.28031342    -0.37200
N3148       N  0.71446689  0.38377027  0.25688017    -0.39600
N3149       N  0.70177010  0.39360787  0.17167795    -0.39400
N3150       N  0.76178871  0.35897935  0.14670154    -0.37000
N3151       N  0.83362858  0.42095977  0.23456399    -0.38000
N3152       N  0.77277354  0.45570694  0.25847420    -0.39700
C3153       C  0.89216298  0.70752876  0.24350129    -0.04600
C3154       C  0.91601996  0.71790391  0.24283357     0.09500
C3155       C  0.92980461  0.71999948  0.26484101    -0.02000
C3156       C  0.92059756  0.71014651  0.28707446    -0.00300
C3157       C  0.89714985  0.69844520  0.28760743    -0.03900
C3158       C  0.88260757  0.69814418  0.26579674     0.03100
C3159       C  0.92736315  0.72580465  0.21890540     0.10000
C3160       C  0.95379068  0.73199117  0.26440879     0.35900
C3161       C  0.85755269  0.68858228  0.26628092     0.39300
C3162       C  0.92631746  0.75067799  0.21151352    -0.04300
C3163       C  0.94097244  0.75899775  0.19168905     0.02900
C3164       C  0.95653580  0.74240858  0.17893248    -0.03900
C3165       C  0.95612621  0.71717058  0.18520251    -0.00100
C3166       C  0.94153186  0.70889000  0.20507070    -0.02700
C3167       C  0.91114012  0.76790266  0.22520731     0.36600
C3168       C  0.97241848  0.70011758  0.17258380     0.40200
C3169       C  0.94141068  0.78496603  0.18550668     0.39300
C3170       C  0.94220937  0.68318893  0.21226753     0.36300
C3171       C  0.87754882  0.70633408  0.22112048     0.37000
C3172       C  0.93594363  0.71112413  0.30899567     0.40200
N3173       N  0.94187614  0.80571066  0.18066381    -0.37900
N3174       N  0.89899292  0.78156975  0.23620714    -0.39400
N3175       N  0.98557820  0.68661525  0.16258766    -0.37200
N3176       N  0.94273412  0.66269800  0.21807367    -0.39600
N3177       N  0.97283280  0.74171040  0.26394766    -0.39400
N3178       N  0.94826278  0.71196919  0.32642924    -0.37000
N3179       N  0.83754635  0.68102523  0.26672844    -0.38000
N3180       N  0.86586631  0.70538818  0.20326844    -0.39700
C3181       C  0.96548906  0.69158926  0.51909890    -0.04600
C3182       C  0.94965317  0.70668115  0.50498584     0.09500
C3183       C  0.94574888  0.73139514  0.51220321    -0.02000
C3184       C  0.95942032  0.74157186  0.53192778    -0.00300
C3185       C  0.97659920  0.72691623  0.54488625    -0.03900
C3186       C  0.97871400  0.70163188  0.53917999     0.03100
C3187       C  0.93874399  0.69708171  0.48142050     0.10000
C3188       C  0.92841241  0.74657650  0.49865369     0.35900
C3189       C  0.99576488  0.68636436  0.55299464     0.39300
C3190       C  0.91841282  0.68084338  0.48179888    -0.04300
C3191       C  0.90877687  0.67120722  0.45957370     0.02900
C3192       C  0.91947781  0.67772990  0.43664122    -0.03900
C3193       C  0.93978632  0.69418333  0.43637360    -0.00100
C3194       C  0.94934858  0.70377192  0.45865263    -0.02700
C3195       C  0.90726945  0.67426942  0.50515145     0.36600
C3196       C  0.95136179  0.70079962  0.41324894     0.40200
C3197       C  0.88719408  0.65531328  0.46042213     0.39300
C3198       C  0.97034247  0.72042559  0.45822812     0.36300
C3199       C  0.96926955  0.66608531  0.51203616     0.37000
C3200       C  0.95683721  0.76746084  0.53812481     0.40200
N3201       N  0.86998287  0.64264892  0.46113643    -0.37900
N3202       N  0.89845945  0.66901760  0.52381135    -0.39400
N3203       N  0.96060745  0.70610595  0.39481397    -0.37200
N3204       N  0.98702490  0.73378408  0.45799099    -0.39600
N3205       N  0.91457222  0.75867853  0.48783299    -0.39400
N3206       N  0.95489344  0.78812562  0.54307082    -0.37000
N3207       N  0.00935058  0.67424438  0.56410687    -0.38000
N3208       N  0.97226509  0.64574747  0.50632949    -0.39700
C3209       C  0.98514602  0.59493434  0.32585754    -0.04600
C3210       C  0.98412920  0.57583684  0.30825451     0.09500
C3211       C  0.96087557  0.56715247  0.30005814    -0.02000
C3212       C  0.93877247  0.57719999  0.30970605    -0.00300
C3213       C  0.93970117  0.59622954  0.32757905    -0.03900
C3214       C  0.96313456  0.60532719  0.33522763     0.03100
C3215       C  0.00750554  0.56403423  0.29903855     0.10000
C3216       C  0.95977202  0.54755929  0.28185783     0.35900
C3217       C  0.96475590  0.62605763  0.35212194     0.39300
C3218       C  0.01621250  0.54220980  0.31009254    -0.04300
C3219       C  0.03635777  0.52934204  0.29974951     0.02900
C3220       C  0.04800134  0.53816246  0.27821958    -0.03900
C3221       C  0.04057390  0.56103673  0.26834512    -0.00100
C3222       C  0.02041002  0.57397494  0.27876318    -0.02700
C3223       C  0.00388924  0.53264526  0.33174230     0.36600
C3224       C  0.05296504  0.57062817  0.24676865     0.40200
C3225       C  0.04457795  0.50646275  0.31075496     0.39300
C3226       C  0.01239594  0.59711546  0.26818472     0.36300
C3227       C  0.00896652  0.60366366  0.33456283     0.37000
C3228       C  0.91513795  0.56732061  0.30176995     0.40200
N3229       N  0.05114631  0.48827136  0.31966933    -0.37900
N3230       N  0.99399829  0.52511770  0.34902993    -0.39400
N3231       N  0.06294854  0.57826663  0.22958185    -0.37200
N3232       N  0.00602076  0.61564577  0.25983254    -0.39600
N3233       N  0.95897478  0.53191133  0.26734892    -0.39400
N3234       N  0.89629059  0.55940419  0.29543159    -0.37000
N3235       N  0.96602895  0.64264918  0.36551395    -0.38000
N3236       N  0.02799143  0.61053082  0.34155399    -0.39700
C3237       C  0.82812215  0.52759577  0.40735822    -0.04600
C3238       C  0.81101788  0.52734275  0.42685415     0.09500
C3239       C  0.80435831  0.54974434  0.43838239    -0.02000
C3240       C  0.81509326  0.57223930  0.43076123    -0.00300
C3241       C  0.83251060  0.57257130  0.41132834    -0.03900
C3242       C  0.83869132  0.55002538  0.39948151     0.03100
C3243       C  0.80046143  0.50340709  0.43584352     0.10000
C3244       C  0.78647164  0.54955465  0.45824811     0.35900
C3245       C  0.85512279  0.54983518  0.37838322     0.39300
C3246       C  0.81415895  0.48862295  0.45229421    -0.04300
C3247       C  0.80301035  0.46802237  0.46359130     0.02900
C3248       C  0.77801339  0.46227312  0.45873452    -0.03900
C3249       C  0.76502457  0.47580503  0.44068142    -0.00100
C3250       C  0.77628838  0.49619553  0.42911795    -0.02700
C3251       C  0.83931923  0.49544052  0.45857070     0.36600
C3252       C  0.73951732  0.46960177  0.43518577     0.40200
C3253       C  0.81667002  0.45378547  0.48159420     0.39300
C3254       C  0.76272024  0.51036006  0.41099524     0.36300
C3255       C  0.83463463  0.50466108  0.39522581     0.37000
C3256       C  0.80858529  0.59489707  0.44340794     0.40200
N3257       N  0.82754364  0.44238536  0.49595254    -0.37900
N3258       N  0.85939608  0.50096989  0.46349565    -0.39400
N3259       N  0.71914827  0.46464144  0.43089299    -0.37200
N3260       N  0.75191770  0.52163856  0.39648790    -0.39600
N3261       N  0.77211403  0.54932107  0.47400848    -0.39400
N3262       N  0.80335044  0.61294369  0.45353226    -0.37000
N3263       N  0.86817761  0.54968773  0.36152932    -0.38000
N3264       N  0.83982845  0.48633221  0.38561177    -0.39700
C3265       C  0.81444514  0.80289357  0.45071610    -0.04600
C3266       C  0.79630813  0.78952390  0.43749780     0.09500
C3267       C  0.77122414  0.79627475  0.43961243    -0.02000
C3268       C  0.76413930  0.81511020  0.45611976    -0.00300
C3269       C  0.78209836  0.82737062  0.47057075    -0.03900
C3270       C  0.80734405  0.82165322  0.46734937     0.03100
C3271       C  0.80335062  0.76663827  0.42361420     0.10000
C3272       C  0.75262365  0.78298136  0.42562567     0.35900
C3273       C  0.82584502  0.83393102  0.48237843     0.39300
C3274       C  0.80076618  0.74342380  0.43496582    -0.04300
C3275       C  0.80881370  0.72180062  0.42288063     0.02900
C3276       C  0.81983155  0.72318715  0.39926193    -0.03900
C3277       C  0.82134928  0.74650676  0.38749102    -0.00100
C3278       C  0.81313825  0.76806090  0.39965169    -0.02700
C3279       C  0.79045825  0.74194263  0.45956752     0.36600
C3280       C  0.83124505  0.74848865  0.36275416     0.40200
C3281       C  0.80681220  0.69836524  0.43550350     0.39300
C3282       C  0.81498060  0.79182939  0.38764870     0.36300
C3283       C  0.84031489  0.79645008  0.44809504     0.37000
C3284       C  0.73820216  0.82096578  0.45933833     0.40200
N3285       N  0.80513759  0.67969087  0.44559844    -0.37900
N3286       N  0.78222729  0.74088622  0.47918369    -0.39400
N3287       N  0.83920562  0.75013177  0.34306235    -0.37200
N3288       N  0.81643625  0.81080119  0.37808854    -0.39600
N3289       N  0.73781854  0.77227685  0.41449524    -0.39400
N3290       N  0.71752611  0.82563940  0.46205882    -0.37000
N3291       N  0.84058449  0.84364061  0.49447061    -0.38000
N3292       N  0.86094390  0.79129407  0.44591565    -0.39700
C3293       C  0.74482028  0.61319562  0.31081555    -0.04600
C3294       C  0.74597688  0.59029350  0.29867293     0.09500
C3295       C  0.76923993  0.57963668  0.29374425    -0.02000
C3296       C  0.79122091  0.59109804  0.30216626    -0.00300
C3297       C  0.79017420  0.61367585  0.31540402    -0.03900
C3298       C  0.76667729  0.62494017  0.31899886     0.03100
C3299       C  0.72266047  0.57681152  0.29184863     0.10000
C3300       C  0.77043643  0.55644085  0.28043788     0.35900
C3301       C  0.76467079  0.64866685  0.33126050     0.39300
C3302       C  0.71301577  0.57836208  0.26775156    -0.04300
C3303       C  0.69287010  0.56334707  0.26060497     0.02900
C3304       C  0.68253687  0.54635656  0.27737189    -0.03900
C3305       C  0.69094614  0.54623099  0.30199122    -0.00100
C3306       C  0.71083189  0.56154232  0.30925722    -0.02700
C3307       C  0.72450126  0.59472561  0.25009049     0.36600
C3308       C  0.68000977  0.52929990  0.31946232     0.40200
C3309       C  0.68329885  0.56468523  0.23569878     0.39300
C3310       C  0.71983992  0.56087448  0.33440754     0.36300
C3311       C  0.72093967  0.62450864  0.31518663     0.37000
C3312       C  0.81465020  0.57873587  0.29829466     0.40200
N3313       N  0.67554969  0.56594478  0.21586849    -0.37900
N3314       N  0.73377824  0.60775955  0.23603785    -0.39400
N3315       N  0.67124285  0.51576015  0.33336078    -0.37200
N3316       N  0.72702839  0.56047122  0.35448481    -0.39600
N3317       N  0.77129726  0.53799017  0.26973170    -0.39400
N3318       N  0.83328466  0.56876112  0.29519170    -0.37000
N3319       N  0.76298721  0.66748661  0.34120227    -0.38000
N3320       N  0.70187336  0.63348874  0.31866628    -0.39700
C3321       C  0.53332642  0.59284722  0.68463890    -0.04600
C3322       C  0.53466834  0.57502394  0.70340297     0.09500
C3323       C  0.55803032  0.56706061  0.71183132    -0.02000
C3324       C  0.57993062  0.57674517  0.70146763    -0.00300
C3325       C  0.57871444  0.59463449  0.68253811    -0.03900
C3326       C  0.55513997  0.60250221  0.67412023     0.03100
C3327       C  0.51145140  0.56381550  0.71360477     0.10000
C3328       C  0.55948024  0.54873503  0.73117435     0.35900
C3329       C  0.55308513  0.62109650  0.65508303     0.39300
C3330       C  0.49890596  0.54526686  0.70019510    -0.04300
C3331       C  0.47822041  0.53326571  0.71048274     0.02900
C3332       C  0.47025934  0.53929019  0.73449170    -0.03900
C3333       C  0.48228065  0.55840228  0.74759126    -0.00100
C3334       C  0.50256107  0.57090147  0.73701763    -0.02700
C3335       C  0.50816581  0.53759638  0.67633941     0.36600
C3336       C  0.47466785  0.56413583  0.77254899     0.40200
C3337       C  0.46605848  0.51353167  0.69703225     0.39300
C3338       C  0.51485381  0.59048480  0.75054324     0.36300
C3339       C  0.50933608  0.60153986  0.67646091     0.37000
C3340       C  0.60368536  0.56758320  0.70980815     0.40200
N3341       N  0.45631792  0.49775280  0.68639338    -0.37900
N3342       N  0.51568332  0.53144653  0.65736302    -0.39400
N3343       N  0.46865657  0.56851986  0.79252332    -0.37200
N3344       N  0.52468398  0.60611392  0.76132416    -0.39600
N3345       N  0.56056943  0.53420764  0.74668969    -0.39400
N3346       N  0.62261836  0.56022448  0.71645423    -0.37000
N3347       N  0.55136935  0.63583530  0.63982056    -0.38000
N3348       N  0.49015773  0.60845230  0.67004794    -0.39700
C3349       C  0.71823548  0.80629993  0.57786990    -0.04600
C3350       C  0.73477259  0.78794777  0.58610799     0.09500
C3351       C  0.76027017  0.79068173  0.58153407    -0.02000
C3352       C  0.76890161  0.81040947  0.56698615    -0.00300
C3353       C  0.75201768  0.82720184  0.55630634    -0.03900
C3354       C  0.72678386  0.82579044  0.56286400     0.03100
C3355       C  0.72511481  0.76450494  0.59721881     0.10000
C3356       C  0.77745165  0.77244448  0.59082901     0.35900
C3357       C  0.70935121  0.84340571  0.55286996     0.39300
C3358       C  0.72024689  0.74398775  0.58186571    -0.04300
C3359       C  0.71049608  0.72201831  0.59182876     0.02900
C3360       C  0.70532875  0.72039456  0.61728355    -0.03900
C3361       C  0.71090797  0.74071317  0.63275873    -0.00100
C3362       C  0.72082607  0.76264359  0.62275700    -0.02700
C3363       C  0.72483832  0.74573550  0.55561843     0.36600
C3364       C  0.70679886  0.73890172  0.65907110     0.40200
C3365       C  0.70469540  0.70149033  0.57562345     0.39300
C3366       C  0.72652966  0.78338495  0.63866917     0.36300
C3367       C  0.69222389  0.80443214  0.58392021     0.37000
C3368       C  0.79514485  0.81297639  0.56222281     0.40200
N3369       N  0.70005113  0.68510209  0.56272366    -0.37900
N3370       N  0.72852171  0.74723716  0.53469543    -0.39400
N3371       N  0.70359874  0.73739068  0.68007531    -0.37200
N3372       N  0.73112940  0.79995774  0.65134192    -0.39600
N3373       N  0.79107908  0.75779425  0.59821687    -0.39400
N3374       N  0.81608124  0.81508856  0.55845380    -0.37000
N3375       N  0.69548916  0.85752789  0.54490406    -0.38000
N3376       N  0.67148168  0.80297915  0.58886124    -0.39700
C3377       C  0.69665828  0.49885990  0.53915838    -0.04600
C3378       C  0.70921729  0.50559027  0.56095764     0.09500
C3379       C  0.72935859  0.49129219  0.56920751    -0.02000
C3380       C  0.73786197  0.47125241  0.55489648    -0.00300
C3381       C  0.72608521  0.46532684  0.53241342    -0.03900
C3382       C  0.70497096  0.47870789  0.52501007     0.03100
C3383       C  0.70178527  0.52846459  0.57452364     0.10000
C3384       C  0.74192301  0.49791069  0.59188905     0.35900
C3385       C  0.69251071  0.47238015  0.50215947     0.39300
C3386       C  0.68400796  0.52728036  0.59336092    -0.04300
C3387       C  0.67579063  0.54905494  0.60502915     0.02900
C3388       C  0.68517254  0.57237670  0.59771968    -0.03900
C3389       C  0.70370475  0.57331917  0.57934984    -0.00100
C3390       C  0.71190962  0.55144960  0.56782608    -0.02700
C3391       C  0.67420628  0.50351502  0.60068233     0.36600
C3392       C  0.71397815  0.59678454  0.57173033     0.40200
C3393       C  0.65829290  0.54717657  0.62516239     0.39300
C3394       C  0.73067782  0.55254229  0.54882285     0.36300
C3395       C  0.67584194  0.51341756  0.53074501     0.37000
C3396       C  0.75964005  0.45768723  0.56248229     0.40200
N3397       N  0.64438338  0.54557507  0.64124109    -0.37900
N3398       N  0.66650701  0.48449517  0.60646474    -0.39400
N3399       N  0.72225919  0.61549634  0.56573825    -0.37200
N3400       N  0.74567046  0.55336448  0.53368532    -0.39600
N3401       N  0.75191107  0.50325764  0.61000036    -0.39400
N3402       N  0.77705182  0.44685939  0.56844887    -0.37000
N3403       N  0.68263238  0.46730803  0.48391129    -0.38000
N3404       N  0.65931969  0.52514522  0.52402272    -0.39700
C3405       C  0.74770260  0.57298846  0.71448737    -0.04600
C3406       C  0.76953191  0.58660992  0.71894440     0.09500
C3407       C  0.76942639  0.61234936  0.71544488    -0.02000
C3408       C  0.74800924  0.62422581  0.70635898    -0.00300
C3409       C  0.72638980  0.61046755  0.70096500    -0.03900
C3410       C  0.72622523  0.58482107  0.70559075     0.03100
C3411       C  0.79264501  0.57339353  0.72675058     0.10000
C3412       C  0.79147619  0.62652548  0.72099066     0.35900
C3413       C  0.70443030  0.57026997  0.69986415     0.39300
C3414       C  0.80833489  0.56278855  0.70886031    -0.04300
C3415       C  0.82720665  0.54625491  0.71598998     0.02900
C3416       C  0.83070813  0.54051077  0.74110009    -0.03900
C3417       C  0.81644179  0.55287541  0.75908465    -0.00100
C3418       C  0.79744839  0.56920714  0.75192795    -0.02700
C3419       C  0.80433070  0.56815373  0.68302690     0.36600
C3420       C  0.82064969  0.54787736  0.78497587     0.40200
C3421       C  0.84189954  0.53387800  0.69740789     0.39300
C3422       C  0.78212048  0.58093405  0.77040481     0.36300
C3423       C  0.74760196  0.54657527  0.71856423     0.37000
C3424       C  0.74818564  0.65067474  0.70262485     0.40200
N3425       N  0.85361067  0.52392957  0.68260971    -0.37900
N3426       N  0.80114267  0.57254649  0.66242798    -0.39400
N3427       N  0.82406129  0.54378882  0.80560345    -0.37200
N3428       N  0.76988149  0.59034618  0.78512299    -0.39600
N3429       N  0.80906422  0.63782996  0.72552499    -0.39400
N3430       N  0.74827091  0.67178036  0.69963977    -0.37000
N3431       N  0.68707566  0.55863384  0.69525806    -0.38000
N3432       N  0.74766622  0.52551659  0.72185062    -0.39700
C3433       C  0.59881898  0.67923646  0.52948466    -0.04600
C3434       C  0.58072286  0.69786656  0.53057663     0.09500
C3435       C  0.57345875  0.70727432  0.55374413    -0.02000
C3436       C  0.58402062  0.69794963  0.57567779    -0.00300
C3437       C  0.60202767  0.67904422  0.57470294    -0.03900
C3438       C  0.60953027  0.66995136  0.55133569     0.03100
C3439       C  0.56866086  0.70704589  0.50736137     0.10000
C3440       C  0.55475109  0.72635934  0.55499438     0.35900
C3441       C  0.62898793  0.65165616  0.54953531     0.39300
C3442       C  0.54962390  0.69317540  0.49608787    -0.04300
C3443       C  0.53672018  0.70271975  0.47560612     0.02900
C3444       C  0.54221608  0.72652737  0.46665639    -0.03900
C3445       C  0.56214072  0.73980671  0.47705124    -0.00100
C3446       C  0.57553033  0.72996224  0.49713150    -0.02700
C3447       C  0.54239137  0.66966487  0.50646944     0.36600
C3448       C  0.56773400  0.76431453  0.46808004     0.40200
C3449       C  0.51670924  0.68866746  0.46458381     0.39300
C3450       C  0.59578279  0.74380757  0.50790986     0.36300
C3451       C  0.60643910  0.66968217  0.50570955     0.37000
C3452       C  0.57572213  0.70737950  0.59926828     0.40200
N3453       N  0.50079202  0.67743474  0.45573567    -0.37900
N3454       N  0.53660222  0.65096368  0.51486976    -0.39400
N3455       N  0.57203777  0.78390803  0.46090748    -0.37200
N3456       N  0.61196379  0.75484167  0.51652543    -0.39600
N3457       N  0.53985540  0.74161358  0.55596782    -0.39400
N3458       N  0.56912532  0.71491715  0.61809380    -0.37000
N3459       N  0.64454228  0.63711231  0.54801330    -0.38000
N3460       N  0.61236066  0.66208828  0.48668467    -0.39700
C3461       C  0.57421401  0.74831601  0.79283094    -0.04600
C3462       C  0.57592409  0.72356978  0.78497436     0.09500
C3463       C  0.56358713  0.70498020  0.79835317    -0.02000
C3464       C  0.54894800  0.71119842  0.81894763    -0.00300
C3465       C  0.54628600  0.73607943  0.82609832    -0.03900
C3466       C  0.55937520  0.75455703  0.81328125     0.03100
C3467       C  0.59009556  0.71692517  0.76218944     0.10000
C3468       C  0.56520973  0.67953807  0.79025014     0.35900
C3469       C  0.55675739  0.78012881  0.82066324     0.39300
C3470       C  0.61555738  0.71166637  0.76364194    -0.04300
C3471       C  0.62827072  0.70259283  0.74282199     0.02900
C3472       C  0.61551863  0.69839874  0.72038388    -0.03900
C3473       C  0.59023418  0.70492458  0.71865406    -0.00100
C3474       C  0.57767773  0.71435094  0.73943782    -0.02700
C3475       C  0.62850087  0.71504893  0.78681597     0.36600
C3476       C  0.57660523  0.70041813  0.69604117     0.40200
C3477       C  0.65453925  0.69754158  0.74454578     0.39300
C3478       C  0.55172634  0.72080793  0.73766733     0.36300
C3479       C  0.58698578  0.76742734  0.77927827     0.37000
C3480       C  0.53576742  0.69211755  0.83218059     0.40200
N3481       N  0.67550024  0.69353321  0.74589430    -0.37900
N3482       N  0.63876365  0.71778708  0.80534122    -0.39400
N3483       N  0.56568626  0.69672149  0.67805281    -0.37200
N3484       N  0.53104391  0.72604485  0.73628980    -0.39600
N3485       N  0.56644676  0.65929835  0.78359444    -0.39400
N3486       N  0.52530079  0.67688211  0.84278101    -0.37000
N3487       N  0.55454749  0.80049183  0.82664287    -0.38000
N3488       N  0.59715453  0.78269065  0.76843717    -0.39700
loop_ 
_geom_bond_atom_site_label_1 
_geom_bond_atom_site_label_2 
_geom_bond_distance 
_geom_bond_site_symmetry_2 
_ccdc_geom_bond_type 
O1           C17   1.281       .  A
O1           Zn7   2.050       .  S
C2           O18   1.276       .  A
C2           O15   1.281       .  A
C2         C3360   1.492       .  S
O3           C16   1.276       .  A
O3          Cd10   2.073       .  S
O4           C22   1.279       .  A
O4          Cd13   2.089       .  S
O5           C19   1.281       .  A
O5           Cd9   2.104       .  S
O6           C17   1.277       .  A
O6           Cd9   2.068       .  S
Zn7          O18   2.024       .  S
Zn7          O20   2.052       .  S
Zn7          O12   1.930       .  S
O8           C19   1.276       .  A
O8          Cd13   2.072       .  S
Cd9          O11   2.090       .  S
Cd9          O12   1.985       .  S
Cd10         O14   2.076       .  S
Cd10         O23   2.065       .  S
Cd10         O12   1.979       .  S
O11          C21   1.278       .  A
O12         Cd13   1.985       .  S
Cd13         O15   2.099       .  S
O14          C21   1.277       .  A
C16          O20   1.279       .  A
C16        C3437   1.500       .  S
C17        C3472   1.493       .  S
C19        C3409   1.494       .  S
C21        C3325   1.500       .  S
C22          O23   1.276       .  A
C22        C3388   1.496       .  S
O24          C40   1.284       .  A
O24         Zn30   2.073       .  S
C25          O41   1.277       .  A
C25          O38   1.280       .  A
C25        C3157   1.500       .  S
O26          C39   1.276       .  A
O26         Cd33   2.064       .  S
O27          C45   1.279       .  A
O27         Cd36   2.089       .  S
O28          C42   1.281       .  A
O28         Cd32   2.100       .  S
O29          C40   1.274       .  A
O29         Cd32   2.049       .  S
Zn30         O41   2.021       .  S
Zn30         O43   2.062       .  S
Zn30         O35   1.930       .  S
O31          C42   1.275       .  A
O31         Cd36   2.060       .  S
Cd32         O34   2.090       .  S
Cd32         O35   1.980       .  S
Cd33         O37   2.068       .  S
Cd33         O46   2.067       .  S
Cd33         O35   1.964       .  S
O34          C44   1.279       .  A
O35         Cd36   1.982       .  S
Cd36         O38   2.093       .  S
O37          C44   1.276       .  A
C39          O43   1.281       .  A
C39        C3213   1.499       .  S
C40        C3297   1.506       .  S
C42        C3276   1.500       .  S
C44        C3241   1.498       .  S
C45          O46   1.276       .  A
C45        C3192   1.494       .  S
O47          C63   1.284       .  A
O47         Zn53   2.082       .  S
C48          O64   1.276       .  A
C48          O61   1.281       .  A
C48        C3101   1.498       .  S
O49          C62   1.275       .  A
O49         Cd56   2.062       .  S
O50          C68   1.282       .  A
O50         Cd59   2.105       .  S
O51          C65   1.281       .  A
O51         Cd55   2.100       .  S
O52          C63   1.275       .  A
O52         Cd55   2.061       .  S
Zn53         O64   2.008       .  S
Zn53         O66   2.051       .  S
Zn53         O58   1.920       .  S
O54          C65   1.274       .  A
O54         Cd59   2.063       .  S
Cd55         O57   2.086       .  S
Cd55         O58   1.966       .  S
Cd56         O60   2.063       .  S
Cd56         O69   2.060       .  S
Cd56         O58   1.964       .  S
O57          C67   1.280       .  A
O58         Cd59   1.973       .  S
Cd59         O61   2.087       .  S
O60          C67   1.276       .  A
C62          O66   1.280       .  A
C62        C3129   1.496       .  S
C63        C3052   1.513       .  S
C65        C2989   1.507       .  S
C67        C3024   1.502       .  S
C68          O69   1.275       .  A
C68        C3073   1.505       .  S
C70         C554   1.484       .  S
C70          C71   1.414   1_554  A
C70          C75   1.412       .  A
C71          C72   1.407       .  A
C71          H76   1.083       .  S
C72        C2961   1.486       .  S
C72          C73   1.392   1_556  A
C73          C74   1.395       .  A
C73          H77   1.086       .  S
C74        C3108   1.488       .  S
C74          C75   1.406       .  A
C75          H78   1.083       .  S
C79        C3220   1.493       .  S
C79          C80   1.410       .  A
C79          C84   1.395       .  A
C80          C81   1.418       .  A
C80          H85   1.083       .  S
C81         C731   1.502       .  S
C81          C82   1.419       .  A
C82          C83   1.412       .  A
C82          H86   1.083       .  S
C83        C3045   1.496       .  S
C83          C84   1.396       .  A
C84          H87   1.085       .  S
O88         C104   1.286       .  A
O88         Zn94   2.090       .  S
C89         O105   1.278       .  A
C89         O102   1.281       .  A
C89        C2821   1.492       .  S
O90         C103   1.273       .  A
O90         Cd97   2.044       .  S
O91         C109   1.281       .  A
O91        Cd100   2.103       .  S
O92         C106   1.280       .  A
O92         Cd96   2.093       .  S
O93         C104   1.274       .  A
O93         Cd96   2.042       .  S
Zn94        O105   2.028       .  S
Zn94        O107   2.091       .  S
Zn94         O99   1.944       .  S
O95         C106   1.277       .  A
O95        Cd100   2.082       .  S
Cd96         O98   2.085       .  S
Cd96         O99   1.981       .  S
Cd97        O101   2.052       .  S
Cd97        O110   2.053       .  S
Cd97         O99   1.963       .  S
O98         C108   1.276       .  A
O99        Cd100   1.991       .  S
Cd100       O102   2.100       .  S
O101        C108   1.273       .  A
C103        O107   1.284       .  A
C103       C2856   1.503       .  S
C104       C2933   1.507       .  S
C106       C2884   1.499       .  S
C108       C2905   1.488       .  S
C109        O110   1.274       .  A
C109       C2968   1.494       .  S
O111        C127   1.280       .  A
O111       Zn117   2.046       .  S
C112        O128   1.273       .  A
C112        O125   1.282       .  A
C112       C2765   1.503       .  S
O113        C126   1.274       .  A
O113       Cd120   2.055       .  S
O114        C132   1.281       .  A
O114       Cd123   2.096       .  S
O115        C129   1.283       .  A
O115       Cd119   2.105       .  S
O116        C127   1.275       .  A
O116       Cd119   2.060       .  S
Zn117       O128   2.003       .  S
Zn117       O130   2.045       .  S
Zn117       O122   1.920       .  S
O118        C129   1.276       .  A
O118       Cd123   2.067       .  S
Cd119       O121   2.106       .  S
Cd119       O122   1.977       .  S
Cd120       O124   2.067       .  S
Cd120       O133   2.073       .  S
Cd120       O122   1.969       .  S
O121        C131   1.281       .  A
O122       Cd123   1.981       .  S
Cd123       O125   2.105       .  S
O124        C131   1.276       .  A
C126        O130   1.280       .  A
C126       C2793   1.496       .  S
C127       C2709   1.494       .  S
C129       C2653   1.494       .  S
C131       C2681   1.498       .  S
C132        O133   1.277       .  A
C132       C2744   1.509       .  S
C134       C2716   1.489       .  S
C134        C135   1.405       .  A
C134        C139   1.395       .  A
C135        C136   1.410       .  A
C135        H140   1.084       .  S
C136        C756   1.483       .  S
C136        C137   1.414       .  A
C137        C138   1.409       .  A
C137        H141   1.083       .  S
C138       C2849   1.488       .  S
C138        C139   1.395       .  A
C139        H142   1.086       .  S
C143       C2940   1.490       .  S
C143        C144   1.410       .  A
C143        C148   1.395       .  A
C144        C145   1.415       .  A
C144        H149   1.082       .  S
C145        C447   1.491       .  S
C145        C146   1.413       .  A
C146        C147   1.405       .  A
C146        H150   1.084       .  S
C147       C2800   1.485       .  S
C147        C148   1.394       .  A
C148        H151   1.086       .  S
C152        C586   1.497       .  S
C152        C153   1.417   1_545  A
C152        C157   1.417       .  A
C153        C154   1.408       .  A
C153        H158   1.083       .  S
C154       C2632   1.490       .  S
C154        C155   1.393   1_565  A
C155        C156   1.393       .  A
C155        H159   1.085       .  S
C156       C2772   1.489       .  S
C156        C157   1.407       .  A
C157        H160   1.083       .  S
C161       C2576   1.487       .  S
C161        C162   1.403       .  A
C161        C166   1.391   1_565  A
C162        C163   1.416   1_565  A
C162        H167   1.083       .  S
C163        C702   1.500       .  S
C163        C164   1.420       .  A
C164        C165   1.415       .  A
C164        H168   1.083       .  S
C165       C2597   1.499       .  S
C165        C166   1.397       .  A
C166        H169   1.086       .  S
C170       C2688   1.491       .  S
C170        C171   1.397   1_556  A
C170        C175   1.409       .  A
C171        C172   1.396       .  A
C171        H176   1.085       .  S
C172       C2541   1.490       .  S
C172        C173   1.407       .  A
C173        C174   1.414       .  A
C173        H177   1.083       .  S
C174        C738   1.490       .  S
C174        C175   1.413   1_554  A
C175        H178   1.083       .  S
C179        C711   1.493       .  S
C179        C180   1.415   1_554  A
C179        C184   1.414       .  A
C180        C181   1.410       .  A
C180        H185   1.083       .  S
C181       C2660   1.493       .  S
C181        C182   1.397   1_556  A
C182        C183   1.395       .  A
C182        H186   1.085       .  S
C183       C2513   1.490       .  S
C183        C184   1.408       .  A
C184        H187   1.083       .  S
C188       C2457   1.492       .  S
C188        C189   1.397       .  A
C188        C193   1.409       .  A
C189        C190   1.396   1_565  A
C189        H194   1.086       .  S
C190       C2485   1.490       .  S
C190        C191   1.406       .  A
C191        C192   1.413   1_545  A
C191        H195   1.083       .  S
C192        C747   1.489   1_565  S
C192        C193   1.414       .  A
C193        H196   1.083       .  S
C197        C684   1.488       .  S
C197        C198   1.415       .  A
C197        C202   1.414   1_455  A
C198        C199   1.408       .  A
C198        H203   1.083       .  S
C199       C2429   1.489       .  S
C199        C200   1.395       .  A
C200        C201   1.390   1_455  A
C200        H204   1.085       .  S
C201       C2996   1.484       .  S
C201        C202   1.403       .  A
C202        H205   1.083       .  S
C206       C3017   1.486       .  S
C206        C207   1.395   1_655  A
C206        C211   1.407       .  A
C207        C208   1.394       .  A
C207        H212   1.086       .  S
C208       C2401   1.489       .  S
C208        C209   1.408       .  A
C209        C210   1.415       .  A
C209        H213   1.083       .  S
C210        C675   1.491       .  S
C210        C211   1.414   1_455  A
C211        H214   1.083       .  S
O215        C231   1.285       .  A
O215       Zn221   2.083       .  S
C216        O232   1.276       .  A
C216        O229   1.281       .  A
C216       C2520   1.517       .  S
O217        C230   1.276       .  A
O217       Cd224   2.058       .  S
O218        C236   1.281       .  A
O218       Cd227   2.102       .  S
O219        C233   1.282       .  A
O219       Cd223   2.098       .  S
O220        C231   1.276       .  A
O220       Cd223   2.064       .  S
Zn221       O232   2.025       .  S
Zn221       O234   2.064       .  S
Zn221       O226   1.920       .  S
O222        C233   1.275       .  A
O222       Cd227   2.054       .  S
Cd223       O225   2.102       .  S
Cd223       O226   1.971       .  S
Cd224       O228   2.066       .  S
Cd224       O237   2.070       .  S
Cd224       O226   1.969       .  S
O225        C235   1.281       .  A
O226       Cd227   1.978       .  S
Cd227       O229   2.100       .  S
O228        C235   1.276       .  A
C230        O234   1.283       .  A
C230       C2492   1.499       .  S
C231       C2604   1.504       .  S
C233       C2436   1.493       .  S
C235       C2408   1.509       .  S
C236        O237   1.276       .  A
C236       C2548   1.502       .  S
O238        C254   1.284       .  A
O238       Zn244   2.072       .  S
C239        O255   1.278       .  A
C239        O252   1.280       .  A
C239       C2625   1.498       .  S
O240        C253   1.278       .  A
O240       Cd247   2.072       .  S
O241        C259   1.279       .  A
O241       Cd250   2.086       .  S
O242        C256   1.280       .  A
O242       Cd246   2.097       .  S
O243        C254   1.277       .  A
O243       Cd246   2.062       .  S
Zn244       O255   2.026       .  S
Zn244       O257   2.047       .  S
Zn244       O249   1.918       .  S
O245        C256   1.275       .  A
O245       Cd250   2.063       .  S
Cd246       O248   2.075       .  S
Cd246       O249   1.964       .  S
Cd247       O251   2.080       .  S
Cd247       O260   2.088       .  S
Cd247       O249   1.971       .  S
O248        C258   1.277       .  A
O249       Cd250   1.967       .  S
Cd250       O252   2.086       .  S
O251        C258   1.277       .  A
C253        O257   1.281       .  A
C253       C2345   1.501       .  S
C254       C2317   1.498       .  S
C256       C2289   1.503       .  S
C258       C2380   1.499       .  S
C259        O260   1.279       .  A
C259       C2268   1.508       .  S
O261        C277   1.280       .  A
O261       Zn267   2.047       .  S
C262        O278   1.274       .  A
C262        O275   1.280       .  A
C262       C2240   1.493       .  S
O263        C276   1.276       .  A
O263       Cd270   2.065       .  S
O264        C282   1.279       .  A
O264       Cd273   2.098       .  S
O265        C279   1.282       .  A
O265       Cd269   2.104       .  S
O266        C277   1.276       .  A
O266       Cd269   2.065       .  S
Zn267       O278   2.005       .  S
Zn267       O280   2.039       .  S
Zn267       O272   1.930       .  S
O268        C279   1.276       .  A
O268       Cd273   2.066       .  S
Cd269       O271   2.094       .  S
Cd269       O272   1.980       .  S
Cd270       O274   2.069       .  S
Cd270       O283   2.078       .  S
Cd270       O272   1.965       .  S
O271        C281   1.280       .  A
O272       Cd273   1.980       .  S
Cd273       O275   2.091       .  S
O274        C281   1.277       .  A
C276        O280   1.278       .  A
C276       C2184   1.491       .  S
C277       C2205   1.499       .  S
C279       C2464   1.492       .  S
C281       C2569   1.493       .  S
C282        O283   1.277       .  A
C282       C2149   1.494       .  S
C284        C639   1.487       .  S
C284        C285   1.413   1_455  A
C284        C289   1.413       .  A
C285        C286   1.403       .  A
C285        H290   1.083       .  S
C286       C3185   1.484       .  S
C286        C287   1.393   1_655  A
C287        C288   1.395       .  A
C287        H291   1.086       .  S
C288       C2177   1.486       .  S
C288        C289   1.406       .  A
C289        H292   1.083       .  S
C293        C765   1.499       .  S
C293        C294   1.418       .  A
C293        C298   1.416       .  A
C294        C295   1.409       .  A
C294        H299   1.083       .  S
C295       C2156   1.491       .  S
C295        C296   1.393       .  A
C296        C297   1.395       .  A
C296        H300   1.086       .  S
C297       C2296   1.490       .  S
C297        C298   1.409       .  A
C298        H301   1.083       .  S
C302       C2373   1.489       .  S
C302        C303   1.407       .  A
C302        C307   1.398       .  A
C303        C304   1.412       .  A
C303        H308   1.083       .  S
C304        C522   1.484       .  S
C304        C305   1.409       .  A
C305        C306   1.402       .  A
C305        H309   1.084       .  S
C306       C2233   1.484       .  S
C306        C307   1.398       .  A
C307        H310   1.085       .  S
C311        C774   1.497   1_655  S
C311        C312   1.416   1_655  A
C311        C316   1.417       .  A
C312        C313   1.409       .  A
C312        H317   1.083       .  S
C313       C2212   1.489       .  S
C313        C314   1.394   1_455  A
C314        C315   1.393       .  A
C314        H318   1.086       .  S
C315       C3164   1.490       .  S
C315        C316   1.409       .  A
C316        H319   1.083       .  S
C320        C796   1.492       .  S
C320        C321   1.414       .  A
C320        C325   1.415   1_545  A
C321        C322   1.407       .  A
C321        H326   1.083       .  S
C322       C2737   1.489       .  S
C322        C323   1.396       .  A
C323        C324   1.396   1_545  A
C323        H327   1.085       .  S
C324       C2261   1.491       .  S
C324        C325   1.409       .  A
C325        H328   1.083       .  S
C329        C783   1.495       .  S
C329        C330   1.415       .  A
C329        C334   1.417   1_554  A
C330        C331   1.407       .  A
C330        H335   1.083       .  S
C331       C3080   1.486       .  S
C331        C332   1.393       .  A
C332        C333   1.394   1_554  A
C332        H336   1.086       .  S
C333       C2828   1.490       .  S
C333        C334   1.407       .  A
C334        H337   1.083       .  S
C338       C3465   1.488       .  S
C338        C339   1.396       .  A
C338        C343   1.407       .  A
C339        C340   1.396       .  A
C339        H344   1.085       .  S
C340       C2352   1.488       .  S
C340        C341   1.406       .  A
C341        C342   1.415       .  A
C341        H345   1.083       .  S
C342        C490   1.492       .  S
C342        C343   1.414       .  A
C343        H346   1.083       .  S
C347        C695   1.500       .  S
C347        C348   1.418       .  A
C347        C352   1.420       .  A
C348        C349   1.408       .  A
C348        H353   1.083       .  S
C349       C3444   1.489       .  S
C349        C350   1.391       .  A
C350        C351   1.395       .  A
C350        H354   1.086       .  S
C351       C2324   1.498       .  S
C351        C352   1.413       .  A
C352        H355   1.083       .  S
C356        C666   1.494       .  S
C356        C357   1.413       .  A
C356        C361   1.416       .  A
C357        C358   1.405       .  A
C357        H362   1.084       .  S
C358       C3269   1.488       .  S
C358        C359   1.396       .  A
C359        C360   1.399       .  A
C359        H363   1.085       .  S
C360       C3353   1.497       .  S
C360        C361   1.410       .  A
C361        H364   1.083       .  S
C365        C661   1.488       .  S
C365        C366   1.415       .  A
C365        C370   1.412       .  A
C366        C367   1.409       .  A
C366        H371   1.083       .  S
C367       C3332   1.487       .  S
C367        C368   1.393       .  A
C368        C369   1.393       .  A
C368        H372   1.086       .  S
C369       C2912   1.481       .  S
C369        C370   1.402       .  A
C370        H373   1.084       .  S
C374       C3416   1.493       .  S
C374        C375   1.408       .  A
C374        C379   1.397       .  A
C375        C376   1.414       .  A
C375        H380   1.083       .  S
C376        C652   1.496       .  S
C376        C377   1.417       .  A
C377        C378   1.412       .  A
C377        H381   1.083       .  S
C378       C2877   1.496       .  S
C378        C379   1.397       .  A
C379        H382   1.085       .  S
C383        C724   1.492       .  S
C383        C384   1.416       .  A
C383        C388   1.414       .  A
C384        C385   1.409       .  A
C384        H389   1.083       .  S
C385       C3248   1.488       .  S
C385        C386   1.394       .  A
C386        C387   1.393       .  A
C386        H390   1.086       .  S
C387       C3381   1.486       .  S
C387        C388   1.405       .  A
C388        H391   1.083       .  S
C392       C3304   1.490       .  S
C392        C393   1.395       .  A
C392        C397   1.408       .  A
C393        C394   1.397       .  A
C393        H398   1.085       .  S
C394       C3136   1.496       .  S
C394        C395   1.411       .  A
C395        C396   1.414       .  A
C395        H399   1.083       .  S
C396        C483   1.492       .  S
C396        C397   1.415       .  A
C397        H400   1.083       .  S
O401        C417   1.275       .  A
O401       Zn407   2.010       .  S
C402        O418   1.282       .  A
C402        O415   1.275       .  A
C402       C2072   1.490       .  S
O403        C416   1.274       .  A
O403       Cd410   2.055       .  S
O404        C422   1.281       .  A
O404       Cd413   2.099       .  S
O405        C419   1.277       .  A
O405       Cd409   2.070       .  S
O406        C417   1.281       .  A
O406       Cd409   2.092       .  S
Zn407       O418   2.062       .  S
Zn407       O420   2.062       .  S
Zn407       O412   1.927       .  S
O408        C419   1.282       .  A
O408       Cd413   2.105       .  S
Cd409       O411   2.105       .  S
Cd409       O412   1.977       .  S
Cd410       O414   2.049       .  S
Cd410       O423   2.039       .  S
Cd410       O412   1.956       .  S
O411        C421   1.280       .  A
O412       Cd413   1.979       .  S
Cd413       O415   2.058       .  S
O414        C421   1.273       .  A
C416        O420   1.281       .  A
C416       C2121   1.499       .  S
C417       C2009   1.490       .  S
C419       C2093   1.498       .  S
C421       C2037   1.489       .  S
C422        O423   1.273       .  A
C422       C1988   1.492       .  S
O424        C440   1.274       .  A
O424       Zn430   2.004       .  S
C425        O441   1.281       .  A
C425        O438   1.277       .  A
C425       C1841   1.502       .  S
O426        C439   1.275       .  A
O426       Cd433   2.068       .  S
O427        C445   1.279       .  A
O427       Cd436   2.093       .  S
O428        C442   1.278       .  A
O428       Cd432   2.083       .  S
O429        C440   1.282       .  A
O429       Cd432   2.107       .  S
Zn430       O441   2.056       .  S
Zn430       O443   2.042       .  S
Zn430       O435   1.930       .  S
O431        C442   1.282       .  A
O431       Cd436   2.102       .  S
Cd432       O434   2.101       .  S
Cd432       O435   1.991       .  S
Cd433       O437   2.068       .  S
Cd433       O446   2.074       .  S
Cd433       O435   1.972       .  S
O434        C444   1.281       .  A
O435       Cd436   1.983       .  S
Cd436       O438   2.067       .  S
O437        C444   1.277       .  A
C439        O443   1.278       .  A
C439       C1813   1.496       .  S
C440       C1897   1.494       .  S
C442       C1869   1.500       .  S
C444       C1932   1.500       .  S
C445        O446   1.277       .  A
C445       C1953   1.495       .  S
C447        C448   1.413       .  A
C447        C452   1.417       .  A
C448        C449   1.404       .  A
C448        H453   1.084       .  S
C449       C1792   1.484       .  S
C449        C450   1.393       .  A
C450        C451   1.394       .  A
C450        H454   1.087       .  S
C451       C1925   1.490       .  S
C451        C452   1.410       .  A
C452        H455   1.081       .  S
O456        C472   1.276       .  A
O456       Zn462   2.011       .  S
C457        O473   1.284       .  A
C457        O470   1.278       .  A
C457       C1736   1.504       .  S
O458        C471   1.274       .  A
O458       Cd465   2.062       .  S
O459        C477   1.280       .  A
O459       Cd468   2.100       .  S
O460        C474   1.276       .  A
O460       Cd464   2.074       .  S
O461        C472   1.281       .  A
O461       Cd464   2.095       .  S
Zn462       O473   2.067       .  S
Zn462       O475   2.074       .  S
Zn462       O467   1.931       .  S
O463        C474   1.284       .  A
O463       Cd468   2.117       .  S
Cd464       O466   2.102       .  S
Cd464       O467   1.986       .  S
Cd465       O469   2.049       .  S
Cd465       O478   2.045       .  S
Cd465       O467   1.965       .  S
O466        C476   1.280       .  A
O467       Cd468   1.990       .  S
Cd468       O470   2.076       .  S
O469        C476   1.273       .  A
C471        O475   1.281       .  A
C471       C1680   1.504       .  S
C472       C1764   1.493       .  S
C474       C1701   1.499       .  S
C476       C1785   1.491       .  S
C477        O478   1.273       .  A
C477       C1645   1.491       .  S
C479       C1673   1.497       .  S
C479        C480   1.396       .  A
C479        C484   1.414       .  A
C480        C481   1.396       .  A
C480        H485   1.085       .  S
C481       C1624   1.488       .  S
C481        C482   1.405       .  A
C482        C483   1.411       .  A
C482        H486   1.084       .  S
C483        C484   1.419       .  A
C484        H487   1.083       .  S
C488       C1589   1.484       .  S
C488        C489   1.402       .  A
C488        C493   1.392       .  A
C489        C490   1.413       .  A
C489        H494   1.084       .  S
C490        C491   1.419       .  A
C491        C492   1.411       .  A
C491        H495   1.083       .  S
C492       C1561   1.493       .  S
C492        C493   1.395       .  A
C493        H496   1.086       .  S
O497        C513   1.274       .  A
O497       Zn503   2.002       .  S
C498        O514   1.279       .  A
C498        O511   1.274       .  A
C498       C1617   1.501       .  S
O499        C512   1.277       .  A
O499       Cd506   2.074       .  S
O500        C518   1.280       .  A
O500       Cd509   2.084       .  S
O501        C515   1.273       .  A
O501       Cd505   2.047       .  S
O502        C513   1.279       .  A
O502       Cd505   2.091       .  S
Zn503       O514   2.054       .  S
Zn503       O516   2.042       .  S
Zn503       O508   1.929       .  S
O504        C515   1.280       .  A
O504       Cd509   2.092       .  S
Cd505       O507   2.092       .  S
Cd505       O508   1.986       .  S
Cd506       O510   2.079       .  S
Cd506       O519   2.067       .  S
Cd506       O508   1.974       .  S
O507        C517   1.279       .  A
O508       Cd509   1.987       .  S
Cd509       O511   2.064       .  S
O510        C517   1.276       .  A
C512        O516   1.278       .  A
C512       C1449   1.512       .  S
C513       C1477   1.501       .  S
C515       C1596   1.495       .  S
C517       C1505   1.507       .  S
C518        O519   1.277       .  A
C518       C1533   1.495       .  S
C520       C1652   1.481       .  S
C520        C521   1.403       .  A
C520        C525   1.391       .  A
C521        C522   1.412       .  A
C521        H526   1.083       .  S
C522        C523   1.413       .  A
C523        C524   1.406       .  A
C523        H527   1.083       .  S
C524       C1981   1.481       .  S
C524        C525   1.393       .  A
C525        H528   1.086       .  S
O529        C545   1.277       .  A
O529       Zn535   2.022       .  S
C530        O546   1.283       .  A
C530        O543   1.275       .  A
C530       C1568   1.499       .  S
O531        C544   1.278       .  A
O531       Cd538   2.086       .  S
O532        C550   1.280       .  A
O532       Cd541   2.089       .  S
O533        C547   1.275       .  A
O533       Cd537   2.069       .  S
O534        C545   1.278       .  A
O534       Cd537   2.083       .  S
Zn535       O546   2.074       .  S
Zn535       O548   2.051       .  S
Zn535       O540   1.925       .  S
O536        C547   1.280       .  A
O536       Cd541   2.102       .  S
Cd537       O539   2.079       .  S
Cd537       O540   1.978       .  S
Cd538       O542   2.076       .  S
Cd538       O551   2.080       .  S
Cd538       O540   1.975       .  S
O539        C549   1.278       .  A
O540       Cd541   1.977       .  S
Cd541       O543   2.057       .  S
O542        C549   1.276       .  A
C544        O548   1.280       .  A
C544       C1393   1.526       .  S
C545       C1309   1.494       .  S
C547       C1372   1.504       .  S
C549       C1337   1.504       .  S
C550        O551   1.278       .  A
C550       C1421   1.503       .  S
C552       C1428   1.489       .  S
C552        C553   1.406       .  A
C552        C557   1.396       .  A
C553        C554   1.412       .  A
C553        H558   1.083       .  S
C554        C555   1.411   1_554  A
C555        C556   1.407       .  A
C555        H559   1.084       .  S
C556       C1281   1.490       .  S
C556        C557   1.398   1_556  A
C557        H560   1.085       .  S
O561        C577   1.276       .  A
O561       Zn567   2.020       .  S
C562        O578   1.282       .  A
C562        O575   1.275       .  A
C562       C1253   1.499       .  S
O563        C576   1.275       .  A
O563       Cd570   2.060       .  S
O564        C582   1.279       .  A
O564       Cd573   2.096       .  S
O565        C579   1.276       .  A
O565       Cd569   2.063       .  S
O566        C577   1.280       .  A
O566       Cd569   2.089       .  S
Zn567       O578   2.067       .  S
Zn567       O580   2.056       .  S
Zn567       O572   1.932       .  S
O568        C579   1.282       .  A
O568       Cd573   2.101       .  S
Cd569       O571   2.090       .  S
Cd569       O572   1.980       .  S
Cd570       O574   2.072       .  S
Cd570       O583   2.059       .  S
Cd570       O572   1.965       .  S
O571        C581   1.278       .  A
O572       Cd573   1.982       .  S
Cd573       O575   2.053       .  S
O574        C581   1.277       .  A
C576        O580   1.281       .  A
C576       C1169   1.496       .  S
C577       C1113   1.491       .  S
C579       C1204   1.502       .  S
C581       C1148   1.493       .  S
C582        O583   1.275       .  A
C582       C1225   1.494       .  S
C584       C1092   1.490       .  S
C584        C585   1.408       .  A
C584        C589   1.395   1_565  A
C585        C586   1.416   1_565  A
C585        H590   1.083       .  S
C586        C587   1.415       .  A
C587        C588   1.406       .  A
C587        H591   1.083       .  S
C588       C1260   1.488       .  S
C588        C589   1.395       .  A
C589        H592   1.085       .  S
O593        C609   1.277       .  A
O593       Zn599   2.018       .  S
C594        O610   1.283       .  A
C594        O607   1.275       .  A
C594        C973   1.505       .  S
O595        C608   1.277       .  A
O595       Cd602   2.073       .  S
O596        C614   1.280       .  A
O596       Cd605   2.087       .  S
O597        C611   1.275       .  A
O597       Cd601   2.062       .  S
O598        C609   1.279       .  A
O598       Cd601   2.078       .  S
Zn599       O610   2.065       .  S
Zn599       O612   2.051       .  S
Zn599       O604   1.912       .  S
O600        C611   1.281       .  A
O600       Cd605   2.101       .  S
Cd601       O603   2.085       .  S
Cd601       O604   1.964       .  S
Cd602       O606   2.069       .  S
Cd602       O615   2.060       .  S
Cd602       O604   1.964       .  S
O603        C613   1.279       .  A
O604       Cd605   1.965       .  S
Cd605       O607   2.061       .  S
O606        C613   1.276       .  A
C608        O612   1.281       .  A
C608       C1085   1.500       .  S
C609       C1008   1.495       .  S
C611       C1029   1.504       .  S
C613       C1288   1.493       .  S
C614        O615   1.276       .  A
C614       C1057   1.501       .  S
O616        C632   1.274       .  A
O616       Zn622   2.002       .  S
C617        O633   1.282       .  A
C617        O630   1.275       .  A
C617        C889   1.504       .  S
O618        C631   1.277       .  A
O618       Cd625   2.070       .  S
O619        C637   1.279       .  A
O619       Cd628   2.094       .  S
O620        C634   1.276       .  A
O620       Cd624   2.071       .  S
O621        C632   1.280       .  A
O621       Cd624   2.093       .  S
Zn622       O633   2.063       .  S
Zn622       O635   2.053       .  S
Zn622       O627   1.934       .  S
O623        C634   1.282       .  A
O623       Cd628   2.103       .  S
Cd624       O626   2.094       .  S
Cd624       O627   1.988       .  S
Cd625       O629   2.081       .  S
Cd625       O638   2.065       .  S
Cd625       O627   1.972       .  S
O626        C636   1.279       .  A
O627       Cd628   1.982       .  S
Cd628       O630   2.060       .  S
O629        C636   1.278       .  A
C631        O635   1.280       .  A
C631        C924   1.505       .  S
C632        C952   1.488       .  S
C634        C812   1.499       .  S
C636        C868   1.497       .  S
C637        O638   1.276       .  A
C637        C840   1.496       .  S
C639        C640   1.411   1_455  A
C639        C644   1.414       .  A
C640        C641   1.403       .  A
C640        H645   1.084       .  S
C641       C1064   1.483       .  S
C641        C642   1.393   1_655  A
C642        C643   1.394       .  A
C642        H646   1.086       .  S
C643        C945   1.485       .  S
C643        C644   1.407       .  A
C644        H647   1.083       .  S
C648        C917   1.489       .  S
C648        C649   1.393       .  A
C648        C653   1.409       .  A
C649        C650   1.393       .  A
C649        H654   1.086       .  S
C650       C2128   1.490       .  S
C650        C651   1.411       .  A
C651        C652   1.417       .  A
C651        H655   1.083       .  S
C652        C653   1.417       .  A
C653        H656   1.083       .  S
C657       C2065   1.490       .  S
C657        C658   1.396       .  A
C657        C662   1.405       .  A
C658        C659   1.395       .  A
C658        H663   1.086       .  S
C659        C896   1.488       .  S
C659        C660   1.407       .  A
C660        C661   1.414       .  A
C660        H664   1.083       .  S
C661        C662   1.413       .  A
C662        H665   1.084       .  S
C666        C667   1.414       .  A
C666        C671   1.418       .  A
C667        C668   1.405       .  A
C667        H672   1.083       .  S
C668       C1232   1.485       .  S
C668        C669   1.394       .  A
C669        C670   1.393       .  A
C669        H673   1.086       .  S
C670       C1960   1.491       .  S
C670        C671   1.410       .  A
C671        H674   1.083       .  S
C675        C676   1.417   1_455  A
C675        C680   1.414       .  A
C676        C677   1.409       .  A
C676        H681   1.083       .  S
C677       C1141   1.489       .  S
C677        C678   1.393   1_655  A
C678        C679   1.393       .  A
C678        H682   1.086       .  S
C679       C2044   1.484       .  S
C679        C680   1.405       .  A
C680        H683   1.083       .  S
C684        C685   1.412   1_455  A
C684        C689   1.412       .  A
C685        C686   1.404       .  A
C685        H690   1.084       .  S
C686       C1120   1.486       .  S
C686        C687   1.396   1_655  A
C687        C688   1.397       .  A
C687        H691   1.085       .  S
C688       C2016   1.487       .  S
C688        C689   1.406       .  A
C689        H692   1.083       .  S
C693       C1540   1.488       .  S
C693        C694   1.408       .  A
C693        C698   1.395       .  A
C694        C695   1.416       .  A
C694        H699   1.083       .  S
C695        C696   1.419       .  A
C696        C697   1.411       .  A
C696        H700   1.083       .  S
C697       C1400   1.494       .  S
C697        C698   1.395       .  A
C698        H701   1.086       .  S
C702        C703   1.416   1_545  A
C702        C707   1.418       .  A
C703        C704   1.405       .  A
C703        H708   1.083       .  S
C704       C1344   1.492       .  S
C704        C705   1.396       .  A
C705        C706   1.394   1_565  A
C705        H709   1.086       .  S
C706       C1848   1.493       .  S
C706        C707   1.413       .  A
C707        H710   1.083       .  S
C711        C712   1.413       .  A
C711        C716   1.417   1_554  A
C712        C713   1.406       .  A
C712        H717   1.083       .  S
C713       C1512   1.489       .  S
C713        C714   1.396       .  A
C714        C715   1.398   1_554  A
C714        H718   1.085       .  S
C715        C805   1.495       .  S
C715        C716   1.412       .  A
C716        H719   1.083       .  S
C720       C1876   1.494       .  S
C720        C721   1.398       .  A
C720        C725   1.410       .  A
C721        C722   1.396       .  A
C721        H726   1.085       .  S
C722       C1197   1.488       .  S
C722        C723   1.405       .  A
C723        C724   1.413       .  A
C723        H727   1.084       .  S
C724        C725   1.415       .  A
C725        H728   1.083       .  S
C729       C1729   1.494       .  S
C729        C730   1.411       .  A
C729        C734   1.394       .  A
C730        C731   1.418       .  A
C730        H735   1.083       .  S
C731        C732   1.419       .  A
C732        C733   1.411       .  A
C732        H736   1.083       .  S
C733       C1456   1.493       .  S
C733        C734   1.395       .  A
C734        H737   1.085       .  S
C738        C739   1.418   1_554  A
C738        C743   1.411       .  A
C739        C740   1.412       .  A
C739        H744   1.083       .  S
C740        C833   1.490       .  S
C740        C741   1.393   1_556  A
C741        C742   1.392       .  A
C741        H745   1.086       .  S
C742       C1484   1.482       .  S
C742        C743   1.403       .  A
C743        H746   1.084       .  S
C747        C748   1.413       .  A
C747        C752   1.414   1_545  A
C748        C749   1.407       .  A
C748        H753   1.083       .  S
C749       C1820   1.487       .  S
C749        C750   1.395       .  A
C750        C751   1.396   1_545  A
C750        H754   1.085       .  S
C751       C1316   1.489       .  S
C751        C752   1.408       .  A
C752        H755   1.083       .  S
C756        C757   1.411       .  A
C756        C761   1.412       .  A
C757        C758   1.406       .  A
C757        H762   1.083       .  S
C758       C1904   1.485       .  S
C758        C759   1.395       .  A
C759        C760   1.395       .  A
C759        H763   1.086       .  S
C760       C1757   1.487       .  S
C760        C761   1.407       .  A
C761        H764   1.083       .  S
C765        C766   1.418       .  A
C765        C770   1.416       .  A
C766        C767   1.410       .  A
C766        H771   1.083       .  S
C767       C2100   1.492       .  S
C767        C768   1.396       .  A
C768        C769   1.395       .  A
C768        H772   1.085       .  S
C769       C1708   1.490       .  S
C769        C770   1.407       .  A
C770        H773   1.083       .  S
C774        C775   1.417       .  A
C774        C779   1.416   1_455  A
C775        C776   1.410       .  A
C775        H780   1.083       .  S
C776        C861   1.491       .  S
C776        C777   1.394       .  A
C777        C778   1.395   1_455  A
C777        H781   1.086       .  S
C778       C1036   1.490       .  S
C778        C779   1.408       .  A
C779        H782   1.083       .  S
C783        C784   1.417       .  A
C783        C788   1.413   1_554  A
C784        C785   1.410       .  A
C784        H789   1.083       .  S
C785       C1365   1.492       .  S
C785        C786   1.396       .  A
C786        C787   1.395   1_554  A
C786        H790   1.085       .  S
C787       C1001   1.487       .  S
C787        C788   1.404       .  A
C788        H791   1.083       .  S
C792        C980   1.491       .  S
C792        C793   1.395   1_565  A
C792        C797   1.409       .  A
C793        C794   1.393       .  A
C793        H798   1.086       .  S
C794       C1176   1.487       .  S
C794        C795   1.408       .  A
C795        C796   1.415       .  A
C795        H799   1.083       .  S
C796        C797   1.415   1_545  A
C797        H800   1.083       .  S
C801        C802   1.411       .  A
C801        C806   1.413       .  A
C801        C819   1.450       .  S
C802        C807   1.506       .  S
C802        C803   1.414       .  A
C803        C804   1.416       .  A
C803        C808   1.450       .  S
C804        C805   1.413       .  A
C804        C820   1.450       .  S
C805        C806   1.416       .  A
C806        C809   1.450       .  S
C807        C810   1.413       .  A
C807        C814   1.410       .  A
C808        N825   1.157       .  T
C809        N827   1.157       .  T
C810        C811   1.414       .  A
C810        C815   1.451       .  S
C811        C812   1.417       .  A
C811        C817   1.451       .  S
C812        C813   1.420       .  A
C813        C814   1.415       .  A
C813        C816   1.451       .  S
C814        C818   1.450       .  S
C815        N822   1.157       .  T
C816        N823   1.158       .  T
C817        N821   1.157       .  T
C818        N824   1.157       .  T
C819        N828   1.157       .  T
C820        N826   1.157       .  T
C829        C830   1.412       .  A
C829        C834   1.414       .  A
C829        C847   1.450       .  S
C830        C835   1.502       .  S
C830        C831   1.411       .  A
C831        C832   1.412       .  A
C831        C836   1.450       .  S
C832        C833   1.414       .  A
C832        C848   1.450   1_556  S
C833        C834   1.413       .  A
C834        C837   1.450       .  S
C835        C838   1.408       .  A
C835        C842   1.413       .  A
C836        N853   1.157       .  T
C837        N855   1.157       .  T
C838        C839   1.413       .  A
C838        C843   1.451       .  S
C839        C840   1.420       .  A
C839        C845   1.452       .  S
C840        C841   1.415       .  A
C841        C842   1.415       .  A
C841        C844   1.451       .  S
C842        C846   1.450       .  S
C843        N850   1.157       .  T
C844        N851   1.157       .  T
C845        N849   1.158       .  T
C846        N852   1.157       .  T
C847        N856   1.157       .  T
C848        N854   1.157       .  T
C857        C858   1.413       .  A
C857        C862   1.416       .  A
C857        C875   1.449       .  S
C858        C863   1.505   1_554  S
C858        C859   1.412       .  A
C859        C860   1.413       .  A
C859        C864   1.450       .  S
C860        C861   1.413       .  A
C860        C876   1.450       .  S
C861        C862   1.413       .  A
C862        C865   1.450       .  S
C863        C866   1.410       .  A
C863        C870   1.413       .  A
C864        N881   1.157   1_554  T
C865        N883   1.157       .  T
C866        C867   1.415       .  A
C866        C871   1.450   1_556  S
C867        C868   1.419       .  A
C867        C873   1.451       .  S
C868        C869   1.415       .  A
C869        C870   1.415       .  A
C869        C872   1.450       .  S
C870        C874   1.450       .  S
C871        N878   1.157       .  T
C872        N879   1.157       .  T
C873        N877   1.157       .  T
C874        N880   1.157       .  T
C875        N884   1.157   1_554  T
C876        N882   1.157   1_455  T
C885        C886   1.408       .  A
C885        C890   1.413       .  A
C885        C903   1.451       .  S
C886        C891   1.502       .  S
C886        C887   1.412       .  A
C887        C888   1.415       .  A
C887        C892   1.451       .  S
C888        C889   1.419       .  A
C888        C904   1.450       .  S
C889        C890   1.423       .  A
C890        C893   1.452       .  S
C891        C894   1.412       .  A
C891        C898   1.413       .  A
C892        N909   1.157       .  T
C893        N911   1.157       .  T
C894        C895   1.410       .  A
C894        C899   1.451       .  S
C895        C896   1.412       .  A
C895        C901   1.451       .  S
C896        C897   1.412       .  A
C897        C898   1.415       .  A
C897        C900   1.450       .  S
C898        C902   1.449       .  S
C899        N906   1.157       .  T
C900        N907   1.157       .  T
C901        N905   1.157       .  T
C902        N908   1.157       .  T
C903        N912   1.157       .  T
C904        N910   1.157       .  T
C913        C914   1.411   1_655  A
C913        C918   1.412       .  A
C913        C931   1.450   1_655  S
C914        C919   1.503       .  S
C914        C915   1.413   1_455  A
C915        C916   1.415       .  A
C915        C920   1.450   1_655  S
C916        C917   1.412       .  A
C916        C932   1.450       .  S
C917        C918   1.413       .  A
C918        C921   1.451       .  S
C919        C922   1.411       .  A
C919        C926   1.407       .  A
C920        N937   1.157       .  T
C921        N939   1.157       .  T
C922        C923   1.416       .  A
C922        C927   1.451       .  S
C923        C924   1.420       .  A
C923        C929   1.451       .  S
C924        C925   1.424       .  A
C925        C926   1.414       .  A
C925        C928   1.452       .  S
C926        C930   1.451       .  S
C927        N934   1.157       .  T
C928        N935   1.158       .  T
C929        N933   1.157       .  T
C930        N936   1.157   1_455  T
C931        N940   1.157       .  T
C932        N938   1.157       .  T
C941        C942   1.410       .  A
C941        C946   1.410       .  A
C941        C959   1.450       .  S
C942        C947   1.497       .  S
C942        C943   1.412       .  A
C943        C944   1.412       .  A
C943        C948   1.450       .  S
C944        C945   1.412       .  A
C944        C960   1.450       .  S
C945        C946   1.413       .  A
C946        C949   1.450       .  S
C947        C950   1.412       .  A
C947        C954   1.408       .  A
C948        N965   1.157       .  T
C949        N967   1.157       .  T
C950        C951   1.412       .  A
C950        C955   1.451       .  S
C951        C952   1.414       .  A
C951        C957   1.451       .  S
C952        C953   1.418       .  A
C953        C954   1.411       .  A
C953        C956   1.451       .  S
C954        C958   1.450       .  S
C955        N962   1.157       .  T
C956        N963   1.157       .  T
C957        N961   1.157       .  T
C958        N964   1.157       .  T
C959        N968   1.157       .  T
C960        N966   1.157       .  T
C969        C970   1.411       .  A
C969        C974   1.415       .  A
C969        C987   1.451       .  S
C970        C975   1.501   1_655  S
C970        C971   1.406       .  A
C971        C972   1.412       .  A
C971        C976   1.452   1_655  S
C972        C973   1.426       .  A
C972        C988   1.452       .  S
C973        C974   1.420       .  A
C974        C977   1.451       .  S
C975        C978   1.412       .  A
C975        C982   1.410       .  A
C976        N993   1.157       .  T
C977        N995   1.158       .  T
C978        C979   1.415       .  A
C978        C983   1.449       .  S
C979        C980   1.413       .  A
C979        C985   1.450       .  S
C980        C981   1.415       .  A
C981        C982   1.410       .  A
C981        C984   1.451       .  S
C982        C986   1.451   1_455  S
C983        N990   1.157       .  T
C984        N991   1.157       .  T
C985        N989   1.157       .  T
C986        N992   1.157       .  T
C987        N996   1.157       .  T
C988        N994   1.158       .  T
C997        C998   1.413       .  A
C997       C1002   1.412       .  A
C997       C1015   1.450       .  S
C998       C1003   1.498   1_545  S
C998        C999   1.411       .  A
C999       C1000   1.409       .  A
C999       C1004   1.451   1_545  S
C1000      C1001   1.413       .  A
C1000      C1016   1.450       .  S
C1001      C1002   1.411       .  A
C1002      C1005   1.450       .  S
C1003      C1006   1.411       .  A
C1003      C1010   1.409       .  A
C1004      N1021   1.157       .  T
C1005      N1023   1.157       .  T
C1006      C1007   1.411       .  A
C1006      C1011   1.452       .  S
C1007      C1008   1.418       .  A
C1007      C1013   1.452       .  S
C1008      C1009   1.421       .  A
C1009      C1010   1.411       .  A
C1009      C1012   1.452       .  S
C1010      C1014   1.451       .  S
C1011      N1018   1.157       .  T
C1012      N1019   1.158       .  T
C1013      N1017   1.158       .  T
C1014      N1020   1.157   1_565  T
C1015      N1024   1.157       .  T
C1016      N1022   1.157       .  T
C1025      C1026   1.412       .  A
C1025      C1030   1.415       .  A
C1025      C1043   1.451       .  S
C1026      C1031   1.503   1_556  S
C1026      C1027   1.408       .  A
C1027      C1028   1.412       .  A
C1027      C1032   1.451       .  S
C1028      C1029   1.425       .  A
C1028      C1044   1.453       .  S
C1029      C1030   1.419       .  A
C1030      C1033   1.451       .  S
C1031      C1034   1.413       .  A
C1031      C1038   1.412       .  A
C1032      N1049   1.157   1_556  T
C1033      N1051   1.158       .  T
C1034      C1035   1.414       .  A
C1034      C1039   1.450       .  S
C1035      C1036   1.412       .  A
C1035      C1041   1.450       .  S
C1036      C1037   1.414       .  A
C1037      C1038   1.411       .  A
C1037      C1040   1.451       .  S
C1038      C1042   1.451   1_554  S
C1039      N1046   1.157       .  T
C1040      N1047   1.157       .  T
C1041      N1045   1.157       .  T
C1042      N1048   1.157       .  T
C1043      N1052   1.157       .  T
C1044      N1050   1.158       .  T
C1053      C1054   1.407       .  A
C1053      C1058   1.412       .  A
C1053      C1071   1.452       .  S
C1054      C1059   1.497       .  S
C1054      C1055   1.411       .  A
C1055      C1056   1.411       .  A
C1055      C1060   1.452       .  S
C1056      C1057   1.420       .  A
C1056      C1072   1.451       .  S
C1057      C1058   1.425       .  A
C1058      C1061   1.452       .  S
C1059      C1062   1.413       .  A
C1059      C1066   1.411       .  A
C1060      N1077   1.157       .  T
C1061      N1079   1.158       .  T
C1062      C1063   1.411       .  A
C1062      C1067   1.450       .  S
C1063      C1064   1.411       .  A
C1063      C1069   1.451       .  S
C1064      C1065   1.412       .  A
C1065      C1066   1.408       .  A
C1065      C1068   1.451       .  S
C1066      C1070   1.451       .  S
C1067      N1074   1.157       .  T
C1068      N1075   1.157       .  T
C1069      N1073   1.157       .  T
C1070      N1076   1.157       .  T
C1071      N1080   1.157       .  T
C1072      N1078   1.157       .  T
C1081      C1082   1.412       .  A
C1081      C1086   1.415       .  A
C1081      C1099   1.450       .  S
C1082      C1087   1.504       .  S
C1082      C1083   1.409       .  A
C1083      C1084   1.414       .  A
C1083      C1088   1.451       .  S
C1084      C1085   1.421       .  A
C1084      C1100   1.451       .  S
C1085      C1086   1.416       .  A
C1086      C1089   1.450       .  S
C1087      C1090   1.413       .  A
C1087      C1094   1.413       .  A
C1088      N1105   1.157       .  T
C1089      N1107   1.157       .  T
C1090      C1091   1.415       .  A
C1090      C1095   1.449       .  S
C1091      C1092   1.412       .  A
C1091      C1097   1.450       .  S
C1092      C1093   1.413       .  A
C1093      C1094   1.411       .  A
C1093      C1096   1.451       .  S
C1094      C1098   1.451       .  S
C1095      N1102   1.157       .  T
C1096      N1103   1.157       .  T
C1097      N1101   1.157       .  T
C1098      N1104   1.157       .  T
C1099      N1108   1.157       .  T
C1100      N1106   1.158       .  T
C1109      C1110   1.411       .  A
C1109      C1114   1.411       .  A
C1109      C1127   1.452       .  S
C1110      C1115   1.498       .  S
C1110      C1111   1.409       .  A
C1111      C1112   1.414       .  A
C1111      C1116   1.450       .  S
C1112      C1113   1.417       .  A
C1112      C1128   1.451       .  S
C1113      C1114   1.416       .  A
C1114      C1117   1.451       .  S
C1115      C1118   1.410       .  A
C1115      C1122   1.413       .  A
C1116      N1133   1.157       .  T
C1117      N1135   1.157       .  T
C1118      C1119   1.412       .  A
C1118      C1123   1.449       .  S
C1119      C1120   1.413       .  A
C1119      C1125   1.450       .  S
C1120      C1121   1.411       .  A
C1121      C1122   1.412       .  A
C1121      C1124   1.450       .  S
C1122      C1126   1.451       .  S
C1123      N1130   1.157       .  T
C1124      N1131   1.157       .  T
C1125      N1129   1.157       .  T
C1126      N1132   1.157       .  T
C1127      N1136   1.157       .  T
C1128      N1134   1.157       .  T
C1137      C1138   1.413       .  A
C1137      C1142   1.415       .  A
C1137      C1155   1.450       .  S
C1138      C1143   1.502       .  S
C1138      C1139   1.411       .  A
C1139      C1140   1.411       .  A
C1139      C1144   1.451       .  S
C1140      C1141   1.413       .  A
C1140      C1156   1.451       .  S
C1141      C1142   1.412       .  A
C1142      C1145   1.450       .  S
C1143      C1146   1.410       .  A
C1143      C1150   1.413       .  A
C1144      N1161   1.157       .  T
C1145      N1163   1.157       .  T
C1146      C1147   1.413       .  A
C1146      C1151   1.450       .  S
C1147      C1148   1.418       .  A
C1147      C1153   1.451       .  S
C1148      C1149   1.414       .  A
C1149      C1150   1.414       .  A
C1149      C1152   1.451       .  S
C1150      C1154   1.450       .  S
C1151      N1158   1.157       .  T
C1152      N1159   1.157       .  T
C1153      N1157   1.157       .  T
C1154      N1160   1.157       .  T
C1155      N1164   1.157       .  T
C1156      N1162   1.157   1_655  T
C1165      C1166   1.412       .  A
C1165      C1170   1.414       .  A
C1165      C1183   1.451       .  S
C1166      C1171   1.500   1_655  S
C1166      C1167   1.408       .  A
C1167      C1168   1.413       .  A
C1167      C1172   1.451   1_655  S
C1168      C1169   1.421       .  A
C1168      C1184   1.452       .  S
C1169      C1170   1.416       .  A
C1170      C1173   1.450       .  S
C1171      C1174   1.411       .  A
C1171      C1178   1.412       .  A
C1172      N1189   1.157       .  T
C1173      N1191   1.157       .  T
C1174      C1175   1.412       .  A
C1174      C1179   1.450       .  S
C1175      C1176   1.413       .  A
C1175      C1181   1.451       .  S
C1176      C1177   1.412       .  A
C1177      C1178   1.413       .  A
C1177      C1180   1.450       .  S
C1178      C1182   1.450       .  S
C1179      N1186   1.157   1_455  T
C1180      N1187   1.157       .  T
C1181      N1185   1.157       .  T
C1182      N1188   1.157   1_455  T
C1183      N1192   1.157       .  T
C1184      N1190   1.158       .  T
C1193      C1194   1.413       .  A
C1193      C1198   1.413       .  A
C1193      C1211   1.450       .  S
C1194      C1199   1.502       .  S
C1194      C1195   1.411       .  A
C1195      C1196   1.412       .  A
C1195      C1200   1.450       .  S
C1196      C1197   1.412       .  A
C1196      C1212   1.450       .  S
C1197      C1198   1.412       .  A
C1198      C1201   1.450       .  S
C1199      C1202   1.408       .  A
C1199      C1206   1.412       .  A
C1200      N1217   1.157       .  T
C1201      N1219   1.157       .  T
C1202      C1203   1.413       .  A
C1202      C1207   1.450       .  S
C1203      C1204   1.422       .  A
C1203      C1209   1.452       .  S
C1204      C1205   1.419       .  A
C1205      C1206   1.414       .  A
C1205      C1208   1.451       .  S
C1206      C1210   1.452       .  S
C1207      N1214   1.157       .  T
C1208      N1215   1.158       .  T
C1209      N1213   1.157       .  T
C1210      N1216   1.157       .  T
C1211      N1220   1.157       .  T
C1212      N1218   1.157       .  T
C1221      C1222   1.413       .  A
C1221      C1226   1.414       .  A
C1221      C1239   1.451       .  S
C1222      C1227   1.498       .  S
C1222      C1223   1.407       .  A
C1223      C1224   1.411       .  A
C1223      C1228   1.451       .  S
C1224      C1225   1.421       .  A
C1224      C1240   1.452       .  S
C1225      C1226   1.415       .  A
C1226      C1229   1.450       .  S
C1227      C1230   1.411   1_545  A
C1227      C1234   1.412   1_545  A
C1228      N1245   1.157   1_545  T
C1229      N1247   1.157       .  T
C1230      C1231   1.409       .  A
C1230      C1235   1.450   1_565  S
C1231      C1232   1.412       .  A
C1231      C1237   1.451       .  S
C1232      C1233   1.411       .  A
C1233      C1234   1.413       .  A
C1233      C1236   1.450       .  S
C1234      C1238   1.449   1_565  S
C1235      N1242   1.157       .  T
C1236      N1243   1.157       .  T
C1237      N1241   1.157       .  T
C1238      N1244   1.157       .  T
C1239      N1248   1.157       .  T
C1240      N1246   1.157       .  T
C1249      C1250   1.408       .  A
C1249      C1254   1.413       .  A
C1249      C1267   1.450       .  S
C1250      C1255   1.502       .  S
C1250      C1251   1.412       .  A
C1251      C1252   1.414       .  A
C1251      C1256   1.451       .  S
C1252      C1253   1.417       .  A
C1252      C1268   1.450       .  S
C1253      C1254   1.420       .  A
C1254      C1257   1.451       .  S
C1255      C1258   1.413       .  A
C1255      C1262   1.412       .  A
C1256      N1273   1.157       .  T
C1257      N1275   1.157       .  T
C1258      C1259   1.411       .  A
C1258      C1263   1.451       .  S
C1259      C1260   1.412       .  A
C1259      C1265   1.451       .  S
C1260      C1261   1.412       .  A
C1261      C1262   1.414       .  A
C1261      C1264   1.450       .  S
C1262      C1266   1.449       .  S
C1263      N1270   1.157       .  T
C1264      N1271   1.157       .  T
C1265      N1269   1.157       .  T
C1266      N1272   1.157       .  T
C1267      N1276   1.157       .  T
C1268      N1274   1.157       .  T
C1277      C1278   1.412       .  A
C1277      C1282   1.414       .  A
C1277      C1295   1.449       .  S
C1278      C1283   1.499       .  S
C1278      C1279   1.412       .  A
C1279      C1280   1.410       .  A
C1279      C1284   1.451       .  S
C1280      C1281   1.414       .  A
C1280      C1296   1.451       .  S
C1281      C1282   1.413       .  A
C1282      C1285   1.450       .  S
C1283      C1286   1.412       .  A
C1283      C1290   1.409       .  A
C1284      N1301   1.157       .  T
C1285      N1303   1.157       .  T
C1286      C1287   1.412       .  A
C1286      C1291   1.451       .  S
C1287      C1288   1.414       .  A
C1287      C1293   1.450       .  S
C1288      C1289   1.420       .  A
C1289      C1290   1.413       .  A
C1289      C1292   1.452       .  S
C1290      C1294   1.451       .  S
C1291      N1298   1.157       .  T
C1292      N1299   1.158       .  T
C1293      N1297   1.157       .  T
C1294      N1300   1.157       .  T
C1295      N1304   1.157       .  T
C1296      N1302   1.157   1_556  T
C1305      C1306   1.414       .  A
C1305      C1310   1.413       .  A
C1305      C1323   1.452       .  S
C1306      C1311   1.504       .  S
C1306      C1307   1.411       .  A
C1307      C1308   1.412       .  A
C1307      C1312   1.450       .  S
C1308      C1309   1.417       .  A
C1308      C1324   1.451       .  S
C1309      C1310   1.416       .  A
C1310      C1313   1.451       .  S
C1311      C1314   1.413       .  A
C1311      C1318   1.415       .  A
C1312      N1329   1.157       .  T
C1313      N1331   1.157       .  T
C1314      C1315   1.412       .  A
C1314      C1319   1.451       .  S
C1315      C1316   1.413       .  A
C1315      C1321   1.450   1_565  S
C1316      C1317   1.411       .  A
C1317      C1318   1.413       .  A
C1317      C1320   1.450       .  S
C1318      C1322   1.451       .  S
C1319      N1326   1.157       .  T
C1320      N1327   1.157       .  T
C1321      N1325   1.157       .  T
C1322      N1328   1.157       .  T
C1323      N1332   1.157       .  T
C1324      N1330   1.157       .  T
C1333      C1334   1.408       .  A
C1333      C1338   1.409       .  A
C1333      C1351   1.454       .  S
C1334      C1339   1.497       .  S
C1334      C1335   1.407       .  A
C1335      C1336   1.416       .  A
C1335      C1340   1.450       .  S
C1336      C1337   1.424       .  A
C1336      C1352   1.451       .  S
C1337      C1338   1.423       .  A
C1338      C1341   1.453       .  S
C1339      C1342   1.409       .  A
C1339      C1346   1.412       .  A
C1340      N1357   1.157       .  T
C1341      N1359   1.158       .  T
C1342      C1343   1.410       .  A
C1342      C1347   1.450       .  S
C1343      C1344   1.417       .  A
C1343      C1349   1.451       .  S
C1344      C1345   1.412       .  A
C1345      C1346   1.412       .  A
C1345      C1348   1.449       .  S
C1346      C1350   1.450       .  S
C1347      N1354   1.157       .  T
C1348      N1355   1.157       .  T
C1349      N1353   1.157       .  T
C1350      N1356   1.157       .  T
C1351      N1360   1.157       .  T
C1352      N1358   1.157       .  T
C1361      C1362   1.415       .  A
C1361      C1366   1.417       .  A
C1361      C1379   1.449       .  S
C1362      C1367   1.506   1_545  S
C1362      C1363   1.413       .  A
C1363      C1364   1.411       .  A
C1363      C1368   1.451   1_545  S
C1364      C1365   1.413       .  A
C1364      C1380   1.450       .  S
C1365      C1366   1.412       .  A
C1366      C1369   1.449       .  S
C1367      C1370   1.410       .  A
C1367      C1374   1.413       .  A
C1368      N1385   1.157       .  T
C1369      N1387   1.157       .  T
C1370      C1371   1.413       .  A
C1370      C1375   1.451   1_565  S
C1371      C1372   1.422       .  A
C1371      C1377   1.452       .  S
C1372      C1373   1.419       .  A
C1373      C1374   1.416       .  A
C1373      C1376   1.450       .  S
C1374      C1378   1.451       .  S
C1375      N1382   1.157       .  T
C1376      N1383   1.157       .  T
C1377      N1381   1.158       .  T
C1378      N1384   1.157       .  T
C1379      N1388   1.157   1_545  T
C1380      N1386   1.157   1_554  T
C1389      C1390   1.407       .  A
C1389      C1394   1.419       .  A
C1389      C1407   1.451       .  S
C1390      C1395   1.508       .  S
C1390      C1391   1.409       .  A
C1391      C1392   1.416       .  A
C1391      C1396   1.453       .  S
C1392      C1393   1.429       .  A
C1392      C1408   1.451       .  S
C1393      C1394   1.431       .  A
C1394      C1397   1.451       .  S
C1395      C1398   1.414       .  A
C1395      C1402   1.412       .  A
C1396      N1413   1.157       .  T
C1397      N1415   1.158       .  T
C1398      C1399   1.416       .  A
C1398      C1403   1.450       .  S
C1399      C1400   1.413       .  A
C1399      C1405   1.450       .  S
C1400      C1401   1.414       .  A
C1401      C1402   1.414       .  A
C1401      C1404   1.450       .  S
C1402      C1406   1.450       .  S
C1403      N1410   1.157       .  T
C1404      N1411   1.157       .  T
C1405      N1409   1.157       .  T
C1406      N1412   1.157       .  T
C1407      N1416   1.157       .  T
C1408      N1414   1.158       .  T
C1417      C1418   1.411       .  A
C1417      C1422   1.414       .  A
C1417      C1435   1.451       .  S
C1418      C1423   1.503       .  S
C1418      C1419   1.409       .  A
C1419      C1420   1.415       .  A
C1419      C1424   1.451       .  S
C1420      C1421   1.422       .  A
C1420      C1436   1.451       .  S
C1421      C1422   1.418       .  A
C1422      C1425   1.451       .  S
C1423      C1426   1.413       .  A
C1423      C1430   1.413       .  A
C1424      N1441   1.157       .  T
C1425      N1443   1.157       .  T
C1426      C1427   1.414       .  A
C1426      C1431   1.449       .  S
C1427      C1428   1.412       .  A
C1427      C1433   1.450       .  S
C1428      C1429   1.412       .  A
C1429      C1430   1.412       .  A
C1429      C1432   1.451       .  S
C1430      C1434   1.451       .  S
C1431      N1438   1.157       .  T
C1432      N1439   1.157       .  T
C1433      N1437   1.157       .  T
C1434      N1440   1.157       .  T
C1435      N1444   1.157       .  T
C1436      N1442   1.157       .  T
C1445      C1446   1.411       .  A
C1445      C1450   1.413       .  A
C1445      C1463   1.453       .  S
C1446      C1451   1.507       .  S
C1446      C1447   1.410       .  A
C1447      C1448   1.416       .  A
C1447      C1452   1.450       .  S
C1448      C1449   1.424       .  A
C1448      C1464   1.451       .  S
C1449      C1450   1.425       .  A
C1450      C1453   1.452       .  S
C1451      C1454   1.413       .  A
C1451      C1458   1.415       .  A
C1452      N1469   1.157       .  T
C1453      N1471   1.158       .  T
C1454      C1455   1.414       .  A
C1454      C1459   1.450       .  S
C1455      C1456   1.415       .  A
C1455      C1461   1.450       .  S
C1456      C1457   1.411       .  A
C1457      C1458   1.414       .  A
C1457      C1460   1.450       .  S
C1458      C1462   1.451       .  S
C1459      N1466   1.157       .  T
C1460      N1467   1.157       .  T
C1461      N1465   1.157       .  T
C1462      N1468   1.157       .  T
C1463      N1472   1.157       .  T
C1464      N1470   1.158       .  T
C1473      C1474   1.406       .  A
C1473      C1478   1.410       .  A
C1473      C1491   1.451       .  S
C1474      C1479   1.498       .  S
C1474      C1475   1.412       .  A
C1475      C1476   1.413       .  A
C1475      C1480   1.452       .  S
C1476      C1477   1.420       .  A
C1476      C1492   1.451       .  S
C1477      C1478   1.424       .  A
C1478      C1481   1.452       .  S
C1479      C1482   1.412       .  A
C1479      C1486   1.412       .  A
C1480      N1497   1.157       .  T
C1481      N1499   1.158       .  T
C1482      C1483   1.410       .  A
C1482      C1487   1.451       .  S
C1483      C1484   1.411       .  A
C1483      C1489   1.450       .  S
C1484      C1485   1.412       .  A
C1485      C1486   1.410       .  A
C1485      C1488   1.451       .  S
C1486      C1490   1.450       .  S
C1487      N1494   1.157       .  T
C1488      N1495   1.157       .  T
C1489      N1493   1.157       .  T
C1490      N1496   1.157       .  T
C1491      N1500   1.157       .  T
C1492      N1498   1.158       .  T
C1501      C1502   1.410       .  A
C1501      C1506   1.414       .  A
C1501      C1519   1.451       .  S
C1502      C1507   1.503       .  S
C1502      C1503   1.408       .  A
C1503      C1504   1.416       .  A
C1503      C1508   1.451       .  S
C1504      C1505   1.425       .  A
C1504      C1520   1.451       .  S
C1505      C1506   1.420       .  A
C1506      C1509   1.451       .  S
C1507      C1510   1.413       .  A
C1507      C1514   1.412       .  A
C1508      N1525   1.157       .  T
C1509      N1527   1.157       .  T
C1510      C1511   1.415       .  A
C1510      C1515   1.449       .  S
C1511      C1512   1.412       .  A
C1511      C1517   1.450       .  S
C1512      C1513   1.412       .  A
C1513      C1514   1.411       .  A
C1513      C1516   1.451       .  S
C1514      C1518   1.451       .  S
C1515      N1522   1.157       .  T
C1516      N1523   1.157       .  T
C1517      N1521   1.157       .  T
C1518      N1524   1.157       .  T
C1519      N1528   1.157       .  T
C1520      N1526   1.158       .  T
C1529      C1530   1.409       .  A
C1529      C1534   1.412       .  A
C1529      C1547   1.451       .  S
C1530      C1535   1.501       .  S
C1530      C1531   1.412       .  A
C1531      C1532   1.413       .  A
C1531      C1536   1.451       .  S
C1532      C1533   1.416       .  A
C1532      C1548   1.451       .  S
C1533      C1534   1.421       .  A
C1534      C1537   1.452       .  S
C1535      C1538   1.413       .  A
C1535      C1542   1.412       .  A
C1536      N1553   1.157       .  T
C1537      N1555   1.158       .  T
C1538      C1539   1.411       .  A
C1538      C1543   1.451       .  S
C1539      C1540   1.412       .  A
C1539      C1545   1.451       .  S
C1540      C1541   1.412       .  A
C1541      C1542   1.414       .  A
C1541      C1544   1.449       .  S
C1542      C1546   1.450       .  S
C1543      N1550   1.157       .  T
C1544      N1551   1.157       .  T
C1545      N1549   1.157       .  T
C1546      N1552   1.157       .  T
C1547      N1556   1.157       .  T
C1548      N1554   1.157       .  T
C1557      C1558   1.416   1_556  A
C1557      C1562   1.416       .  A
C1557      C1575   1.449       .  S
C1558      C1563   1.508       .  S
C1558      C1559   1.414       .  A
C1559      C1560   1.410   1_554  A
C1559      C1564   1.451       .  S
C1560      C1561   1.413       .  A
C1560      C1576   1.450       .  S
C1561      C1562   1.412       .  A
C1562      C1565   1.449       .  S
C1563      C1566   1.417       .  A
C1563      C1570   1.411       .  A
C1564      N1581   1.157       .  T
C1565      N1583   1.157       .  T
C1566      C1567   1.418       .  A
C1566      C1571   1.451       .  S
C1567      C1568   1.415       .  A
C1567      C1573   1.450       .  S
C1568      C1569   1.420       .  A
C1569      C1570   1.411       .  A
C1569      C1572   1.452       .  S
C1570      C1574   1.452       .  S
C1571      N1578   1.157       .  T
C1572      N1579   1.157       .  T
C1573      N1577   1.157       .  T
C1574      N1580   1.157       .  T
C1575      N1584   1.157       .  T
C1576      N1582   1.157       .  T
C1585      C1586   1.413   1_556  A
C1585      C1590   1.412       .  A
C1585      C1603   1.450   1_556  S
C1586      C1591   1.496       .  S
C1586      C1587   1.410       .  A
C1587      C1588   1.407   1_554  A
C1587      C1592   1.451       .  S
C1588      C1589   1.413       .  A
C1588      C1604   1.450       .  S
C1589      C1590   1.411       .  A
C1590      C1593   1.450       .  S
C1591      C1594   1.408       .  A
C1591      C1598   1.411       .  A
C1592      N1609   1.157       .  T
C1593      N1611   1.157       .  T
C1594      C1595   1.409       .  A
C1594      C1599   1.452       .  S
C1595      C1596   1.422       .  A
C1595      C1601   1.453       .  S
C1596      C1597   1.417       .  A
C1597      C1598   1.412       .  A
C1597      C1600   1.451       .  S
C1598      C1602   1.451       .  S
C1599      N1606   1.157   1_554  T
C1600      N1607   1.157       .  T
C1601      N1605   1.158       .  T
C1602      N1608   1.157       .  T
C1603      N1612   1.157       .  T
C1604      N1610   1.157       .  T
C1613      C1614   1.411       .  A
C1613      C1618   1.414       .  A
C1613      C1631   1.451       .  S
C1614      C1619   1.501       .  S
C1614      C1615   1.408       .  A
C1615      C1616   1.414       .  A
C1615      C1620   1.451       .  S
C1616      C1617   1.423       .  A
C1616      C1632   1.451       .  S
C1617      C1618   1.418       .  A
C1618      C1621   1.451       .  S
C1619      C1622   1.411       .  A
C1619      C1626   1.413       .  A
C1620      N1637   1.157       .  T
C1621      N1639   1.157       .  T
C1622      C1623   1.411       .  A
C1622      C1627   1.450       .  S
C1623      C1624   1.413       .  A
C1623      C1629   1.451       .  S
C1624      C1625   1.411       .  A
C1625      C1626   1.413       .  A
C1625      C1628   1.450       .  S
C1626      C1630   1.450       .  S
C1627      N1634   1.157       .  T
C1628      N1635   1.157       .  T
C1629      N1633   1.157       .  T
C1630      N1636   1.157       .  T
C1631      N1640   1.157       .  T
C1632      N1638   1.158       .  T
C1641      C1642   1.406       .  A
C1641      C1646   1.410       .  A
C1641      C1659   1.451       .  S
C1642      C1647   1.495       .  S
C1642      C1643   1.412       .  A
C1643      C1644   1.412       .  A
C1643      C1648   1.450       .  S
C1644      C1645   1.414       .  A
C1644      C1660   1.451       .  S
C1645      C1646   1.421       .  A
C1646      C1649   1.452       .  S
C1647      C1650   1.411       .  A
C1647      C1654   1.411       .  A
C1648      N1665   1.157       .  T
C1649      N1667   1.158       .  T
C1650      C1651   1.410       .  A
C1650      C1655   1.450       .  S
C1651      C1652   1.412       .  A
C1651      C1657   1.451       .  S
C1652      C1653   1.411       .  A
C1653      C1654   1.409       .  A
C1653      C1656   1.451       .  S
C1654      C1658   1.450       .  S
C1655      N1662   1.157       .  T
C1656      N1663   1.157       .  T
C1657      N1661   1.157       .  T
C1658      N1664   1.157       .  T
C1659      N1668   1.157       .  T
C1660      N1666   1.157       .  T
C1669      C1670   1.415       .  A
C1669      C1674   1.418       .  A
C1669      C1687   1.449       .  S
C1670      C1675   1.511       .  S
C1670      C1671   1.413       .  A
C1671      C1672   1.414       .  A
C1671      C1676   1.450       .  S
C1672      C1673   1.415       .  A
C1672      C1688   1.450       .  S
C1673      C1674   1.413       .  A
C1674      C1677   1.450       .  S
C1675      C1678   1.415       .  A
C1675      C1682   1.410       .  A
C1676      N1693   1.157       .  T
C1677      N1695   1.157       .  T
C1678      C1679   1.418       .  A
C1678      C1683   1.451       .  S
C1679      C1680   1.416       .  A
C1679      C1685   1.450       .  S
C1680      C1681   1.422       .  A
C1681      C1682   1.416       .  A
C1681      C1684   1.452       .  S
C1682      C1686   1.451       .  S
C1683      N1690   1.157       .  T
C1684      N1691   1.158       .  T
C1685      N1689   1.157       .  T
C1686      N1692   1.157       .  T
C1687      N1696   1.157       .  T
C1688      N1694   1.157       .  T
C1697      C1698   1.413       .  A
C1697      C1702   1.415       .  A
C1697      C1715   1.451       .  S
C1698      C1703   1.506       .  S
C1698      C1699   1.410       .  A
C1699      C1700   1.417       .  A
C1699      C1704   1.450       .  S
C1700      C1701   1.419       .  A
C1700      C1716   1.450       .  S
C1701      C1702   1.416       .  A
C1702      C1705   1.451       .  S
C1703      C1706   1.412       .  A
C1703      C1710   1.413       .  A
C1704      N1721   1.157       .  T
C1705      N1723   1.157       .  T
C1706      C1707   1.415       .  A
C1706      C1711   1.449       .  S
C1707      C1708   1.413       .  A
C1707      C1713   1.450       .  S
C1708      C1709   1.411       .  A
C1709      C1710   1.413       .  A
C1709      C1712   1.450       .  S
C1710      C1714   1.450       .  S
C1711      N1718   1.157       .  T
C1712      N1719   1.157       .  T
C1713      N1717   1.157       .  T
C1714      N1720   1.157       .  T
C1715      N1724   1.157       .  T
C1716      N1722   1.157       .  T
C1725      C1726   1.412       .  A
C1725      C1730   1.415       .  A
C1725      C1743   1.450       .  S
C1726      C1731   1.508       .  S
C1726      C1727   1.414       .  A
C1727      C1728   1.414       .  A
C1727      C1732   1.450       .  S
C1728      C1729   1.413       .  A
C1728      C1744   1.450       .  S
C1729      C1730   1.415       .  A
C1730      C1733   1.450       .  S
C1731      C1734   1.413       .  A
C1731      C1738   1.410       .  A
C1732      N1749   1.157       .  T
C1733      N1751   1.157       .  T
C1734      C1735   1.416       .  A
C1734      C1739   1.451       .  S
C1735      C1736   1.419       .  A
C1735      C1741   1.451       .  S
C1736      C1737   1.421       .  A
C1737      C1738   1.416       .  A
C1737      C1740   1.451       .  S
C1738      C1742   1.450       .  S
C1739      N1746   1.157       .  T
C1740      N1747   1.157       .  T
C1741      N1745   1.157       .  T
C1742      N1748   1.157       .  T
C1743      N1752   1.157       .  T
C1744      N1750   1.157       .  T
C1753      C1754   1.412       .  A
C1753      C1758   1.413       .  A
C1753      C1771   1.450       .  S
C1754      C1759   1.501       .  S
C1754      C1755   1.413       .  A
C1755      C1756   1.411       .  A
C1755      C1760   1.451       .  S
C1756      C1757   1.411       .  A
C1756      C1772   1.451       .  S
C1757      C1758   1.413       .  A
C1758      C1761   1.450       .  S
C1759      C1762   1.413       .  A
C1759      C1766   1.409       .  A
C1760      N1777   1.157       .  T
C1761      N1779   1.157       .  T
C1762      C1763   1.413       .  A
C1762      C1767   1.451       .  S
C1763      C1764   1.416       .  A
C1763      C1769   1.451       .  S
C1764      C1765   1.418       .  A
C1765      C1766   1.412       .  A
C1765      C1768   1.451       .  S
C1766      C1770   1.450       .  S
C1767      N1774   1.157       .  T
C1768      N1775   1.157       .  T
C1769      N1773   1.158       .  T
C1770      N1776   1.157       .  T
C1771      N1780   1.157       .  T
C1772      N1778   1.157       .  T
C1781      C1782   1.413       .  A
C1781      C1786   1.413       .  A
C1781      C1799   1.451       .  S
C1782      C1787   1.498       .  S
C1782      C1783   1.408       .  A
C1783      C1784   1.411       .  A
C1783      C1788   1.451       .  S
C1784      C1785   1.420       .  A
C1784      C1800   1.452       .  S
C1785      C1786   1.414       .  A
C1786      C1789   1.451       .  S
C1787      C1790   1.411       .  A
C1787      C1794   1.412       .  A
C1788      N1805   1.157       .  T
C1789      N1807   1.157       .  T
C1790      C1791   1.411       .  A
C1790      C1795   1.450       .  S
C1791      C1792   1.412       .  A
C1791      C1797   1.451       .  S
C1792      C1793   1.411       .  A
C1793      C1794   1.411       .  A
C1793      C1796   1.450       .  S
C1794      C1798   1.450       .  S
C1795      N1802   1.157       .  T
C1796      N1803   1.157       .  T
C1797      N1801   1.157       .  T
C1798      N1804   1.157       .  T
C1799      N1808   1.157       .  T
C1800      N1806   1.158       .  T
C1809      C1810   1.412       .  A
C1809      C1814   1.413       .  A
C1809      C1827   1.451       .  S
C1810      C1815   1.500       .  S
C1810      C1811   1.408       .  A
C1811      C1812   1.414       .  A
C1811      C1816   1.450       .  S
C1812      C1813   1.421       .  A
C1812      C1828   1.452       .  S
C1813      C1814   1.415       .  A
C1814      C1817   1.450       .  S
C1815      C1818   1.411       .  A
C1815      C1822   1.412       .  A
C1816      N1833   1.157       .  T
C1817      N1835   1.157       .  T
C1818      C1819   1.412       .  A
C1818      C1823   1.449       .  S
C1819      C1820   1.413       .  A
C1819      C1825   1.451       .  S
C1820      C1821   1.412       .  A
C1821      C1822   1.412       .  A
C1821      C1824   1.450       .  S
C1822      C1826   1.450       .  S
C1823      N1830   1.157       .  T
C1824      N1831   1.157       .  T
C1825      N1829   1.157   1_545  T
C1826      N1832   1.157       .  T
C1827      N1836   1.157       .  T
C1828      N1834   1.158       .  T
C1837      C1838   1.409       .  A
C1837      C1842   1.413       .  A
C1837      C1855   1.450       .  S
C1838      C1843   1.505       .  S
C1838      C1839   1.412       .  A
C1839      C1840   1.416       .  A
C1839      C1844   1.451       .  S
C1840      C1841   1.419       .  A
C1840      C1856   1.451       .  S
C1841      C1842   1.420       .  A
C1842      C1845   1.451       .  S
C1843      C1846   1.413       .  A
C1843      C1850   1.412       .  A
C1844      N1861   1.157       .  T
C1845      N1863   1.157       .  T
C1846      C1847   1.413       .  A
C1846      C1851   1.451       .  S
C1847      C1848   1.413       .  A
C1847      C1853   1.451       .  S
C1848      C1849   1.415       .  A
C1849      C1850   1.415       .  A
C1849      C1852   1.450       .  S
C1850      C1854   1.450       .  S
C1851      N1858   1.157       .  T
C1852      N1859   1.157       .  T
C1853      N1857   1.157       .  T
C1854      N1860   1.157       .  T
C1855      N1864   1.157       .  T
C1856      N1862   1.157       .  T
C1865      C1866   1.411       .  A
C1865      C1870   1.416       .  A
C1865      C1883   1.450       .  S
C1866      C1871   1.506       .  S
C1866      C1867   1.413       .  A
C1867      C1868   1.414       .  A
C1867      C1872   1.451       .  S
C1868      C1869   1.417       .  A
C1868      C1884   1.451       .  S
C1869      C1870   1.419       .  A
C1870      C1873   1.450       .  S
C1871      C1874   1.414       .  A
C1871      C1878   1.412       .  A
C1872      N1889   1.157       .  T
C1873      N1891   1.157       .  T
C1874      C1875   1.416       .  A
C1874      C1879   1.450       .  S
C1875      C1876   1.412       .  A
C1875      C1881   1.450       .  S
C1876      C1877   1.414       .  A
C1877      C1878   1.413       .  A
C1877      C1880   1.451       .  S
C1878      C1882   1.450       .  S
C1879      N1886   1.157       .  T
C1880      N1887   1.157       .  T
C1881      N1885   1.157       .  T
C1882      N1888   1.157       .  T
C1883      N1892   1.157       .  T
C1884      N1890   1.157       .  T
C1893      C1894   1.412       .  A
C1893      C1898   1.414       .  A
C1893      C1911   1.451       .  S
C1894      C1899   1.500       .  S
C1894      C1895   1.408       .  A
C1895      C1896   1.412       .  A
C1895      C1900   1.450       .  S
C1896      C1897   1.419       .  A
C1896      C1912   1.451       .  S
C1897      C1898   1.416       .  A
C1898      C1901   1.451       .  S
C1899      C1902   1.411       .  A
C1899      C1906   1.413       .  A
C1900      N1917   1.157       .  T
C1901      N1919   1.157       .  T
C1902      C1903   1.410       .  A
C1902      C1907   1.450       .  S
C1903      C1904   1.411       .  A
C1903      C1909   1.451       .  S
C1904      C1905   1.412       .  A
C1905      C1906   1.413       .  A
C1905      C1908   1.450       .  S
C1906      C1910   1.450       .  S
C1907      N1914   1.157       .  T
C1908      N1915   1.157       .  T
C1909      N1913   1.157       .  T
C1910      N1916   1.157       .  T
C1911      N1920   1.157       .  T
C1912      N1918   1.157       .  T
C1921      C1922   1.412       .  A
C1921      C1926   1.414       .  A
C1921      C1939   1.450       .  S
C1922      C1927   1.503       .  S
C1922      C1923   1.412       .  A
C1923      C1924   1.412       .  A
C1923      C1928   1.450       .  S
C1924      C1925   1.413       .  A
C1924      C1940   1.450       .  S
C1925      C1926   1.413       .  A
C1926      C1929   1.450       .  S
C1927      C1930   1.413       .  A
C1927      C1934   1.408       .  A
C1928      N1945   1.157       .  T
C1929      N1947   1.157       .  T
C1930      C1931   1.415       .  A
C1930      C1935   1.451       .  S
C1931      C1932   1.417       .  A
C1931      C1937   1.451       .  S
C1932      C1933   1.421       .  A
C1933      C1934   1.413       .  A
C1933      C1936   1.452       .  S
C1934      C1938   1.450       .  S
C1935      N1942   1.157       .  T
C1936      N1943   1.158       .  T
C1937      N1941   1.157       .  T
C1938      N1944   1.157       .  T
C1939      N1948   1.157       .  T
C1940      N1946   1.157       .  T
C1949      C1950   1.414       .  A
C1949      C1954   1.415       .  A
C1949      C1967   1.450       .  S
C1950      C1955   1.504       .  S
C1950      C1951   1.410       .  A
C1951      C1952   1.413       .  A
C1951      C1956   1.450   1_545  S
C1952      C1953   1.419       .  A
C1952      C1968   1.452       .  S
C1953      C1954   1.415       .  A
C1954      C1957   1.451       .  S
C1955      C1958   1.413   1_545  A
C1955      C1962   1.412   1_545  A
C1956      N1973   1.157       .  T
C1957      N1975   1.157       .  T
C1958      C1959   1.413       .  A
C1958      C1963   1.450       .  S
C1959      C1960   1.412       .  A
C1959      C1965   1.450       .  S
C1960      C1961   1.414       .  A
C1961      C1962   1.414       .  A
C1961      C1964   1.450       .  S
C1962      C1966   1.450   1_565  S
C1963      N1970   1.157       .  T
C1964      N1971   1.157       .  T
C1965      N1969   1.157       .  T
C1966      N1972   1.157       .  T
C1967      N1976   1.157       .  T
C1968      N1974   1.157       .  T
C1977      C1978   1.410       .  A
C1977      C1982   1.409       .  A
C1977      C1995   1.450       .  S
C1978      C1983   1.495       .  S
C1978      C1979   1.411       .  A
C1979      C1980   1.411       .  A
C1979      C1984   1.450       .  S
C1980      C1981   1.411       .  A
C1980      C1996   1.450       .  S
C1981      C1982   1.412       .  A
C1982      C1985   1.451       .  S
C1983      C1986   1.412       .  A
C1983      C1990   1.406       .  A
C1984      N2001   1.157       .  T
C1985      N2003   1.157       .  T
C1986      C1987   1.412       .  A
C1986      C1991   1.450       .  S
C1987      C1988   1.415       .  A
C1987      C1993   1.451       .  S
C1988      C1989   1.422       .  A
C1989      C1990   1.409       .  A
C1989      C1992   1.453       .  S
C1990      C1994   1.451       .  S
C1991      N1998   1.157       .  T
C1992      N1999   1.158       .  T
C1993      N1997   1.157       .  T
C1994      N2000   1.157       .  T
C1995      N2004   1.157       .  T
C1996      N2002   1.157       .  T
C2005      C2006   1.409       .  A
C2005      C2010   1.413       .  A
C2005      C2023   1.450       .  S
C2006      C2011   1.498       .  S
C2006      C2007   1.412       .  A
C2007      C2008   1.410       .  A
C2007      C2012   1.451       .  S
C2008      C2009   1.415       .  A
C2008      C2024   1.452       .  S
C2009      C2010   1.418       .  A
C2010      C2013   1.451       .  S
C2011      C2014   1.412       .  A
C2011      C2018   1.410       .  A
C2012      N2029   1.157       .  T
C2013      N2031   1.158       .  T
C2014      C2015   1.412       .  A
C2014      C2019   1.450       .  S
C2015      C2016   1.412       .  A
C2015      C2021   1.450       .  S
C2016      C2017   1.412       .  A
C2017      C2018   1.411       .  A
C2017      C2020   1.450       .  S
C2018      C2022   1.450       .  S
C2019      N2026   1.157       .  T
C2020      N2027   1.157       .  T
C2021      N2025   1.157       .  T
C2022      N2028   1.157       .  T
C2023      N2032   1.157       .  T
C2024      N2030   1.157       .  T
C2033      C2034   1.413       .  A
C2033      C2038   1.413       .  A
C2033      C2051   1.450       .  S
C2034      C2039   1.498       .  S
C2034      C2035   1.408       .  A
C2035      C2036   1.411       .  A
C2035      C2040   1.451       .  S
C2036      C2037   1.418       .  A
C2036      C2052   1.452       .  S
C2037      C2038   1.413       .  A
C2038      C2041   1.450       .  S
C2039      C2042   1.412       .  A
C2039      C2046   1.411       .  A
C2040      N2057   1.157       .  T
C2041      N2059   1.157       .  T
C2042      C2043   1.412       .  A
C2042      C2047   1.450       .  S
C2043      C2044   1.411       .  A
C2043      C2049   1.450       .  S
C2044      C2045   1.412       .  A
C2045      C2046   1.411       .  A
C2045      C2048   1.450       .  S
C2046      C2050   1.450       .  S
C2047      N2054   1.157       .  T
C2048      N2055   1.157       .  T
C2049      N2053   1.157       .  T
C2050      N2056   1.157       .  T
C2051      N2060   1.157       .  T
C2052      N2058   1.157       .  T
C2061      C2062   1.410       .  A
C2061      C2066   1.410       .  A
C2061      C2079   1.450       .  S
C2062      C2067   1.499       .  S
C2062      C2063   1.413       .  A
C2063      C2064   1.413       .  A
C2063      C2068   1.450       .  S
C2064      C2065   1.412       .  A
C2064      C2080   1.450       .  S
C2065      C2066   1.414       .  A
C2066      C2069   1.450       .  S
C2067      C2070   1.413       .  A
C2067      C2074   1.409       .  A
C2068      N2085   1.157       .  T
C2069      N2087   1.157       .  T
C2070      C2071   1.413       .  A
C2070      C2075   1.451       .  S
C2071      C2072   1.414       .  A
C2071      C2077   1.451       .  S
C2072      C2073   1.417       .  A
C2073      C2074   1.413       .  A
C2073      C2076   1.451       .  S
C2074      C2078   1.450       .  S
C2075      N2082   1.157       .  T
C2076      N2083   1.157       .  T
C2077      N2081   1.157       .  T
C2078      N2084   1.157       .  T
C2079      N2088   1.157       .  T
C2080      N2086   1.157       .  T
C2089      C2090   1.412       .  A
C2089      C2094   1.414       .  A
C2089      C2107   1.451       .  S
C2090      C2095   1.503       .  S
C2090      C2091   1.409       .  A
C2091      C2092   1.415       .  A
C2091      C2096   1.450       .  S
C2092      C2093   1.420       .  A
C2092      C2108   1.451       .  S
C2093      C2094   1.416       .  A
C2094      C2097   1.451       .  S
C2095      C2098   1.411       .  A
C2095      C2102   1.413       .  A
C2096      N2113   1.157       .  T
C2097      N2115   1.157       .  T
C2098      C2099   1.415       .  A
C2098      C2103   1.449       .  S
C2099      C2100   1.414       .  A
C2099      C2105   1.450       .  S
C2100      C2101   1.412       .  A
C2101      C2102   1.413       .  A
C2101      C2104   1.450       .  S
C2102      C2106   1.450       .  S
C2103      N2110   1.157       .  T
C2104      N2111   1.157       .  T
C2105      N2109   1.157       .  T
C2106      N2112   1.157       .  T
C2107      N2116   1.157       .  T
C2108      N2114   1.157       .  T
C2117      C2118   1.413       .  A
C2117      C2122   1.415       .  A
C2117      C2135   1.450       .  S
C2118      C2123   1.503       .  S
C2118      C2119   1.408       .  A
C2119      C2120   1.413       .  A
C2119      C2124   1.451       .  S
C2120      C2121   1.422       .  A
C2120      C2136   1.452       .  S
C2121      C2122   1.416       .  A
C2122      C2125   1.450       .  S
C2123      C2126   1.412   1_455  A
C2123      C2130   1.412       .  A
C2124      N2141   1.157   1_455  T
C2125      N2143   1.157       .  T
C2126      C2127   1.414       .  A
C2126      C2131   1.450   1_655  S
C2127      C2128   1.413       .  A
C2127      C2133   1.450       .  S
C2128      C2129   1.413       .  A
C2129      C2130   1.413   1_655  A
C2129      C2132   1.450       .  S
C2130      C2134   1.450       .  S
C2131      N2138   1.157       .  T
C2132      N2139   1.157       .  T
C2133      N2137   1.157       .  T
C2134      N2140   1.157       .  T
C2135      N2144   1.157       .  T
C2136      N2142   1.157       .  T
C2145      C2146   1.410       .  A
C2145      C2150   1.414       .  A
C2145      C2163   1.450   1_565  S
C2146      C2151   1.503   1_565  S
C2146      C2147   1.413       .  A
C2147      C2148   1.414       .  A
C2147      C2152   1.451       .  S
C2148      C2149   1.414       .  A
C2148      C2164   1.450       .  S
C2149      C2150   1.418       .  A
C2150      C2153   1.451       .  S
C2151      C2154   1.412       .  A
C2151      C2158   1.412       .  A
C2152      N2169   1.157       .  T
C2153      N2171   1.157       .  T
C2154      C2155   1.414       .  A
C2154      C2159   1.450       .  S
C2155      C2156   1.413       .  A
C2155      C2161   1.450       .  S
C2156      C2157   1.414       .  A
C2157      C2158   1.414       .  A
C2157      C2160   1.450       .  S
C2158      C2162   1.450   1_545  S
C2159      N2166   1.157       .  T
C2160      N2167   1.157       .  T
C2161      N2165   1.157       .  T
C2162      N2168   1.157       .  T
C2163      N2172   1.157       .  T
C2164      N2170   1.157       .  T
C2173      C2174   1.412       .  A
C2173      C2178   1.411       .  A
C2173      C2191   1.450       .  S
C2174      C2179   1.500       .  S
C2174      C2175   1.413       .  A
C2175      C2176   1.412       .  A
C2175      C2180   1.450       .  S
C2176      C2177   1.411       .  A
C2176      C2192   1.450       .  S
C2177      C2178   1.413       .  A
C2178      C2181   1.451       .  S
C2179      C2182   1.414       .  A
C2179      C2186   1.409       .  A
C2180      N2197   1.157       .  T
C2181      N2199   1.157       .  T
C2182      C2183   1.413       .  A
C2182      C2187   1.451       .  S
C2183      C2184   1.413       .  A
C2183      C2189   1.450       .  S
C2184      C2185   1.418       .  A
C2185      C2186   1.411       .  A
C2185      C2188   1.451       .  S
C2186      C2190   1.451       .  S
C2187      N2194   1.157       .  T
C2188      N2195   1.157       .  T
C2189      N2193   1.157       .  T
C2190      N2196   1.157       .  T
C2191      N2200   1.157       .  T
C2192      N2198   1.157       .  T
C2201      C2202   1.412       .  A
C2201      C2206   1.414       .  A
C2201      C2219   1.451       .  S
C2202      C2207   1.502       .  S
C2202      C2203   1.409       .  A
C2203      C2204   1.412       .  A
C2203      C2208   1.450       .  S
C2204      C2205   1.420       .  A
C2204      C2220   1.451       .  S
C2205      C2206   1.419       .  A
C2206      C2209   1.451       .  S
C2207      C2210   1.412       .  A
C2207      C2214   1.412       .  A
C2208      N2225   1.157       .  T
C2209      N2227   1.158       .  T
C2210      C2211   1.411       .  A
C2210      C2215   1.451       .  S
C2211      C2212   1.413       .  A
C2211      C2217   1.451       .  S
C2212      C2213   1.413       .  A
C2213      C2214   1.414       .  A
C2213      C2216   1.450       .  S
C2214      C2218   1.449       .  S
C2215      N2222   1.157       .  T
C2216      N2223   1.157       .  T
C2217      N2221   1.157       .  T
C2218      N2224   1.157       .  T
C2219      N2228   1.157       .  T
C2220      N2226   1.157       .  T
C2229      C2230   1.411       .  A
C2229      C2234   1.412       .  A
C2229      C2247   1.450       .  S
C2230      C2235   1.497       .  S
C2230      C2231   1.412       .  A
C2231      C2232   1.410       .  A
C2231      C2236   1.450       .  S
C2232      C2233   1.411       .  A
C2232      C2248   1.451       .  S
C2233      C2234   1.411       .  A
C2234      C2237   1.450       .  S
C2235      C2238   1.408       .  A
C2235      C2242   1.411       .  A
C2236      N2253   1.157       .  T
C2237      N2255   1.157       .  T
C2238      C2239   1.413       .  A
C2238      C2243   1.450       .  S
C2239      C2240   1.420       .  A
C2239      C2245   1.451       .  S
C2240      C2241   1.417       .  A
C2241      C2242   1.411       .  A
C2241      C2244   1.451       .  S
C2242      C2246   1.452       .  S
C2243      N2250   1.157       .  T
C2244      N2251   1.157       .  T
C2245      N2249   1.157       .  T
C2246      N2252   1.157       .  T
C2247      N2256   1.157       .  T
C2248      N2254   1.157       .  T
C2257      C2258   1.414       .  A
C2257      C2262   1.415       .  A
C2257      C2275   1.450       .  S
C2258      C2263   1.507       .  S
C2258      C2259   1.413       .  A
C2259      C2260   1.413       .  A
C2259      C2264   1.450       .  S
C2260      C2261   1.412       .  A
C2260      C2276   1.450       .  S
C2261      C2262   1.413       .  A
C2262      C2265   1.450       .  S
C2263      C2266   1.412       .  A
C2263      C2270   1.409       .  A
C2264      N2281   1.157       .  T
C2265      N2283   1.157       .  T
C2266      C2267   1.415       .  A
C2266      C2271   1.451       .  S
C2267      C2268   1.420       .  A
C2267      C2273   1.451       .  S
C2268      C2269   1.424       .  A
C2269      C2270   1.416       .  A
C2269      C2272   1.451       .  S
C2270      C2274   1.451       .  S
C2271      N2278   1.157       .  T
C2272      N2279   1.158       .  T
C2273      N2277   1.157       .  T
C2274      N2280   1.157       .  T
C2275      N2284   1.157       .  T
C2276      N2282   1.157       .  T
C2285      C2286   1.406       .  A
C2285      C2290   1.412       .  A
C2285      C2303   1.451       .  S
C2286      C2291   1.500       .  S
C2286      C2287   1.411       .  A
C2287      C2288   1.414       .  A
C2287      C2292   1.451       .  S
C2288      C2289   1.419       .  A
C2288      C2304   1.451       .  S
C2289      C2290   1.425       .  A
C2290      C2293   1.452       .  S
C2291      C2294   1.412   1_565  A
C2291      C2298   1.410   1_565  A
C2292      N2309   1.157       .  T
C2293      N2311   1.158       .  T
C2294      C2295   1.413       .  A
C2294      C2299   1.450       .  S
C2295      C2296   1.412       .  A
C2295      C2301   1.450       .  S
C2296      C2297   1.415       .  A
C2297      C2298   1.411       .  A
C2297      C2300   1.451       .  S
C2298      C2302   1.450   1_545  S
C2299      N2306   1.157       .  T
C2300      N2307   1.157       .  T
C2301      N2305   1.157       .  T
C2302      N2308   1.157       .  T
C2303      N2312   1.157   1_565  T
C2304      N2310   1.158       .  T
C2313      C2314   1.414       .  A
C2313      C2318   1.417       .  A
C2313      C2331   1.450       .  S
C2314      C2319   1.504       .  S
C2314      C2315   1.408       .  A
C2315      C2316   1.411       .  A
C2315      C2320   1.451       .  S
C2316      C2317   1.420       .  A
C2316      C2332   1.451       .  S
C2317      C2318   1.415       .  A
C2318      C2321   1.450       .  S
C2319      C2322   1.410       .  A
C2319      C2326   1.413       .  A
C2320      N2337   1.157       .  T
C2321      N2339   1.157       .  T
C2322      C2323   1.411       .  A
C2322      C2327   1.451       .  S
C2323      C2324   1.418       .  A
C2323      C2329   1.451       .  S
C2324      C2325   1.414       .  A
C2325      C2326   1.416       .  A
C2325      C2328   1.449       .  S
C2326      C2330   1.449       .  S
C2327      N2334   1.157       .  T
C2328      N2335   1.157       .  T
C2329      N2333   1.157       .  T
C2330      N2336   1.157       .  T
C2331      N2340   1.157       .  T
C2332      N2338   1.157       .  T
C2341      C2342   1.409       .  A
C2341      C2346   1.414       .  A
C2341      C2359   1.451       .  S
C2342      C2347   1.504       .  S
C2342      C2343   1.413       .  A
C2343      C2344   1.414       .  A
C2343      C2348   1.451       .  S
C2344      C2345   1.417       .  A
C2344      C2360   1.451       .  S
C2345      C2346   1.422       .  A
C2346      C2349   1.451       .  S
C2347      C2350   1.413       .  A
C2347      C2354   1.414       .  A
C2348      N2365   1.157       .  T
C2349      N2367   1.158       .  T
C2350      C2351   1.414       .  A
C2350      C2355   1.450       .  S
C2351      C2352   1.412       .  A
C2351      C2357   1.449       .  S
C2352      C2353   1.411       .  A
C2353      C2354   1.411       .  A
C2353      C2356   1.451       .  S
C2354      C2358   1.450       .  S
C2355      N2362   1.157       .  T
C2356      N2363   1.157       .  T
C2357      N2361   1.157       .  T
C2358      N2364   1.157       .  T
C2359      N2368   1.157       .  T
C2360      N2366   1.157       .  T
C2369      C2370   1.413       .  A
C2369      C2374   1.412       .  A
C2369      C2387   1.451       .  S
C2370      C2375   1.501       .  S
C2370      C2371   1.412       .  A
C2371      C2372   1.413       .  A
C2371      C2376   1.450       .  S
C2372      C2373   1.412       .  A
C2372      C2388   1.450       .  S
C2373      C2374   1.413       .  A
C2374      C2377   1.451       .  S
C2375      C2378   1.411       .  A
C2375      C2382   1.409       .  A
C2376      N2393   1.157       .  T
C2377      N2395   1.157       .  T
C2378      C2379   1.412       .  A
C2378      C2383   1.451       .  S
C2379      C2380   1.417       .  A
C2379      C2385   1.451       .  S
C2380      C2381   1.421       .  A
C2381      C2382   1.415       .  A
C2381      C2384   1.451       .  S
C2382      C2386   1.451       .  S
C2383      N2390   1.157       .  T
C2384      N2391   1.158       .  T
C2385      N2389   1.157       .  T
C2386      N2392   1.157       .  T
C2387      N2396   1.157       .  T
C2388      N2394   1.157       .  T
C2397      C2398   1.412       .  A
C2397      C2402   1.412       .  A
C2397      C2415   1.450       .  S
C2398      C2403   1.503       .  S
C2398      C2399   1.413       .  A
C2399      C2400   1.414       .  A
C2399      C2404   1.449       .  S
C2400      C2401   1.412       .  A
C2400      C2416   1.449       .  S
C2401      C2402   1.413       .  A
C2402      C2405   1.451       .  S
C2403      C2406   1.411       .  A
C2403      C2410   1.407       .  A
C2404      N2421   1.157       .  T
C2405      N2423   1.157   1_455  T
C2406      C2407   1.415       .  A
C2406      C2411   1.451       .  S
C2407      C2408   1.421       .  A
C2407      C2413   1.451       .  S
C2408      C2409   1.426       .  A
C2409      C2410   1.414       .  A
C2409      C2412   1.451       .  S
C2410      C2414   1.451       .  S
C2411      N2418   1.157       .  T
C2412      N2419   1.158       .  T
C2413      N2417   1.157       .  T
C2414      N2420   1.157       .  T
C2415      N2424   1.157       .  T
C2416      N2422   1.157       .  T
C2425      C2426   1.413   1_556  A
C2425      C2430   1.414       .  A
C2425      C2443   1.450       .  S
C2426      C2431   1.498       .  S
C2426      C2427   1.410   1_554  A
C2427      C2428   1.407       .  A
C2427      C2432   1.451   1_556  S
C2428      C2429   1.415       .  A
C2428      C2444   1.452       .  S
C2429      C2430   1.413       .  A
C2430      C2433   1.449       .  S
C2431      C2434   1.408       .  A
C2431      C2438   1.413       .  A
C2432      N2449   1.157       .  T
C2433      N2451   1.157       .  T
C2434      C2435   1.409       .  A
C2434      C2439   1.452       .  S
C2435      C2436   1.421       .  A
C2435      C2441   1.453       .  S
C2436      C2437   1.416       .  A
C2437      C2438   1.414       .  A
C2437      C2440   1.451       .  S
C2438      C2442   1.451       .  S
C2439      N2446   1.157   1_554  T
C2440      N2447   1.157       .  T
C2441      N2445   1.157       .  T
C2442      N2448   1.157       .  T
C2443      N2452   1.157       .  T
C2444      N2450   1.157       .  T
C2453      C2454   1.413       .  A
C2453      C2458   1.414       .  A
C2453      C2471   1.450       .  S
C2454      C2459   1.501       .  S
C2454      C2455   1.410       .  A
C2455      C2456   1.412       .  A
C2455      C2460   1.450       .  S
C2456      C2457   1.415       .  A
C2456      C2472   1.450       .  S
C2457      C2458   1.413       .  A
C2458      C2461   1.450       .  S
C2459      C2462   1.413       .  A
C2459      C2466   1.409       .  A
C2460      N2477   1.157       .  T
C2461      N2479   1.157       .  T
C2462      C2463   1.413       .  A
C2462      C2467   1.451       .  S
C2463      C2464   1.414       .  A
C2463      C2469   1.451       .  S
C2464      C2465   1.417       .  A
C2465      C2466   1.414       .  A
C2465      C2468   1.451       .  S
C2466      C2470   1.450       .  S
C2467      N2474   1.157       .  T
C2468      N2475   1.157       .  T
C2469      N2473   1.157       .  T
C2470      N2476   1.157       .  T
C2471      N2480   1.157       .  T
C2472      N2478   1.157       .  T
C2481      C2482   1.411       .  A
C2481      C2486   1.409       .  A
C2481      C2499   1.451       .  S
C2482      C2487   1.500       .  S
C2482      C2483   1.412       .  A
C2483      C2484   1.415       .  A
C2483      C2488   1.449       .  S
C2484      C2485   1.413       .  A
C2484      C2500   1.450       .  S
C2485      C2486   1.413       .  A
C2486      C2489   1.451       .  S
C2487      C2490   1.412       .  A
C2487      C2494   1.408       .  A
C2488      N2505   1.157       .  T
C2489      N2507   1.157       .  T
C2490      C2491   1.414       .  A
C2490      C2495   1.450       .  S
C2491      C2492   1.415       .  A
C2491      C2497   1.450       .  S
C2492      C2493   1.423       .  A
C2493      C2494   1.413       .  A
C2493      C2496   1.452       .  S
C2494      C2498   1.451       .  S
C2495      N2502   1.157       .  T
C2496      N2503   1.158       .  T
C2497      N2501   1.157       .  T
C2498      N2504   1.157       .  T
C2499      N2508   1.157       .  T
C2500      N2506   1.157       .  T
C2509      C2510   1.413   1_565  A
C2509      C2514   1.415       .  A
C2509      C2527   1.449       .  S
C2510      C2515   1.506       .  S
C2510      C2511   1.414   1_545  A
C2511      C2512   1.412       .  A
C2511      C2516   1.451   1_565  S
C2512      C2513   1.412       .  A
C2512      C2528   1.450       .  S
C2513      C2514   1.413       .  A
C2514      C2517   1.450       .  S
C2515      C2518   1.407       .  A
C2515      C2522   1.411       .  A
C2516      N2533   1.157       .  T
C2517      N2535   1.157   1_554  T
C2518      C2519   1.414       .  A
C2518      C2523   1.452   1_545  S
C2519      C2520   1.429       .  A
C2519      C2525   1.452       .  S
C2520      C2521   1.425       .  A
C2521      C2522   1.417       .  A
C2521      C2524   1.451       .  S
C2522      C2526   1.452       .  S
C2523      N2530   1.157       .  T
C2524      N2531   1.158       .  T
C2525      N2529   1.158       .  T
C2526      N2532   1.157       .  T
C2527      N2536   1.157   1_565  T
C2528      N2534   1.157       .  T
C2537      C2538   1.415       .  A
C2537      C2542   1.415       .  A
C2537      C2555   1.450       .  S
C2538      C2543   1.507       .  S
C2538      C2539   1.415       .  A
C2539      C2540   1.412       .  A
C2539      C2544   1.451       .  S
C2540      C2541   1.411       .  A
C2540      C2556   1.451       .  S
C2541      C2542   1.412       .  A
C2542      C2545   1.450       .  S
C2543      C2546   1.411       .  A
C2543      C2550   1.414       .  A
C2544      N2561   1.157       .  T
C2545      N2563   1.157       .  T
C2546      C2547   1.414       .  A
C2546      C2551   1.451       .  S
C2547      C2548   1.422       .  A
C2547      C2553   1.452       .  S
C2548      C2549   1.416       .  A
C2549      C2550   1.415       .  A
C2549      C2552   1.450       .  S
C2550      C2554   1.451       .  S
C2551      N2558   1.157       .  T
C2552      N2559   1.157       .  T
C2553      N2557   1.158       .  T
C2554      N2560   1.157       .  T
C2555      N2564   1.157       .  T
C2556      N2562   1.157       .  T
C2565      C2566   1.409       .  A
C2565      C2570   1.413       .  A
C2565      C2583   1.450       .  S
C2566      C2571   1.500       .  S
C2566      C2567   1.413       .  A
C2567      C2568   1.413       .  A
C2567      C2572   1.451       .  S
C2568      C2569   1.414       .  A
C2568      C2584   1.450       .  S
C2569      C2570   1.419       .  A
C2570      C2573   1.452       .  S
C2571      C2574   1.412   1_455  A
C2571      C2578   1.412   1_455  A
C2572      N2589   1.157       .  T
C2573      N2591   1.158       .  T
C2574      C2575   1.412       .  A
C2574      C2579   1.450       .  S
C2575      C2576   1.412       .  A
C2575      C2581   1.450       .  S
C2576      C2577   1.412       .  A
C2577      C2578   1.412       .  A
C2577      C2580   1.450       .  S
C2578      C2582   1.450   1_655  S
C2579      N2586   1.157   1_655  T
C2580      N2587   1.157       .  T
C2581      N2585   1.157   1_565  T
C2582      N2588   1.157       .  T
C2583      N2592   1.157   1_455  T
C2584      N2590   1.157       .  T
C2593      C2594   1.415   1_655  A
C2593      C2598   1.419       .  A
C2593      C2611   1.449       .  S
C2594      C2599   1.508       .  S
C2594      C2595   1.412   1_455  A
C2595      C2596   1.410       .  A
C2595      C2600   1.451   1_655  S
C2596      C2597   1.416       .  A
C2596      C2612   1.452       .  S
C2597      C2598   1.414       .  A
C2598      C2601   1.449       .  S
C2599      C2602   1.409       .  A
C2599      C2606   1.414       .  A
C2600      N2617   1.157       .  T
C2601      N2619   1.157       .  T
C2602      C2603   1.412       .  A
C2602      C2607   1.452       .  S
C2603      C2604   1.422       .  A
C2603      C2609   1.452       .  S
C2604      C2605   1.417       .  A
C2605      C2606   1.420       .  A
C2605      C2608   1.449       .  S
C2606      C2610   1.450       .  S
C2607      N2614   1.157   1_455  T
C2608      N2615   1.157       .  T
C2609      N2613   1.157       .  T
C2610      N2616   1.157       .  T
C2611      N2620   1.157       .  T
C2612      N2618   1.157       .  T
C2621      C2622   1.413       .  A
C2621      C2626   1.413       .  A
C2621      C2639   1.451       .  S
C2622      C2627   1.504       .  S
C2622      C2623   1.411       .  A
C2623      C2624   1.413       .  A
C2623      C2628   1.451       .  S
C2624      C2625   1.421       .  A
C2624      C2640   1.452       .  S
C2625      C2626   1.417       .  A
C2626      C2629   1.451       .  S
C2627      C2630   1.413       .  A
C2627      C2634   1.414       .  A
C2628      N2645   1.157       .  T
C2629      N2647   1.157       .  T
C2630      C2631   1.411       .  A
C2630      C2635   1.451       .  S
C2631      C2632   1.414       .  A
C2631      C2637   1.451       .  S
C2632      C2633   1.412       .  A
C2633      C2634   1.413       .  A
C2633      C2636   1.450       .  S
C2634      C2638   1.450       .  S
C2635      N2642   1.157       .  T
C2636      N2643   1.157       .  T
C2637      N2641   1.157       .  T
C2638      N2644   1.157       .  T
C2639      N2648   1.157       .  T
C2640      N2646   1.158       .  T
C2649      C2650   1.414       .  A
C2649      C2654   1.413       .  A
C2649      C2667   1.451       .  S
C2650      C2655   1.506   1_545  S
C2650      C2651   1.412       .  A
C2651      C2652   1.415       .  A
C2651      C2656   1.450       .  S
C2652      C2653   1.418       .  A
C2652      C2668   1.451       .  S
C2653      C2654   1.414       .  A
C2654      C2657   1.451       .  S
C2655      C2658   1.414       .  A
C2655      C2662   1.412       .  A
C2656      N2673   1.157   1_545  T
C2657      N2675   1.157       .  T
C2658      C2659   1.415       .  A
C2658      C2663   1.450       .  S
C2659      C2660   1.412       .  A
C2659      C2665   1.450       .  S
C2660      C2661   1.415       .  A
C2661      C2662   1.412       .  A
C2661      C2664   1.451   1_556  S
C2662      C2666   1.451   1_565  S
C2663      N2670   1.157       .  T
C2664      N2671   1.157       .  T
C2665      N2669   1.157       .  T
C2666      N2672   1.157       .  T
C2667      N2676   1.157       .  T
C2668      N2674   1.157       .  T
C2677      C2678   1.414       .  A
C2677      C2682   1.415       .  A
C2677      C2695   1.451       .  S
C2678      C2683   1.506       .  S
C2678      C2679   1.410       .  A
C2679      C2680   1.414       .  A
C2679      C2684   1.451       .  S
C2680      C2681   1.421       .  A
C2680      C2696   1.452       .  S
C2681      C2682   1.414       .  A
C2682      C2685   1.450       .  S
C2683      C2686   1.413       .  A
C2683      C2690   1.413       .  A
C2684      N2701   1.157       .  T
C2685      N2703   1.157       .  T
C2686      C2687   1.413       .  A
C2686      C2691   1.450       .  S
C2687      C2688   1.413       .  A
C2687      C2693   1.451       .  S
C2688      C2689   1.412       .  A
C2689      C2690   1.414       .  A
C2689      C2692   1.450       .  S
C2690      C2694   1.449       .  S
C2691      N2698   1.157       .  T
C2692      N2699   1.157       .  T
C2693      N2697   1.157   1_556  T
C2694      N2700   1.157       .  T
C2695      N2704   1.157       .  T
C2696      N2702   1.158       .  T
C2705      C2706   1.408       .  A
C2705      C2710   1.412       .  A
C2705      C2723   1.451       .  S
C2706      C2711   1.497   1_556  S
C2706      C2707   1.411       .  A
C2707      C2708   1.412       .  A
C2707      C2712   1.451       .  S
C2708      C2709   1.416       .  A
C2708      C2724   1.451       .  S
C2709      C2710   1.420       .  A
C2710      C2713   1.451       .  S
C2711      C2714   1.409       .  A
C2711      C2718   1.412       .  A
C2712      N2729   1.157       .  T
C2713      N2731   1.157       .  T
C2714      C2715   1.409       .  A
C2714      C2719   1.450   1_554  S
C2715      C2716   1.416       .  A
C2715      C2721   1.452       .  S
C2716      C2717   1.412       .  A
C2717      C2718   1.412       .  A
C2717      C2720   1.450       .  S
C2718      C2722   1.450       .  S
C2719      N2726   1.157       .  T
C2720      N2727   1.157       .  T
C2721      N2725   1.157       .  T
C2722      N2728   1.157       .  T
C2723      N2732   1.157   1_556  T
C2724      N2730   1.157       .  T
C2733      C2734   1.413       .  A
C2733      C2738   1.413       .  A
C2733      C2751   1.450       .  S
C2734      C2739   1.503       .  S
C2734      C2735   1.412       .  A
C2735      C2736   1.413       .  A
C2735      C2740   1.449       .  S
C2736      C2737   1.412       .  A
C2736      C2752   1.450       .  S
C2737      C2738   1.412       .  A
C2738      C2741   1.450       .  S
C2739      C2742   1.411       .  A
C2739      C2746   1.408       .  A
C2740      N2757   1.157       .  T
C2741      N2759   1.157       .  T
C2742      C2743   1.414       .  A
C2742      C2747   1.452       .  S
C2743      C2744   1.422       .  A
C2743      C2749   1.451       .  S
C2744      C2745   1.426       .  A
C2745      C2746   1.415       .  A
C2745      C2748   1.451       .  S
C2746      C2750   1.451       .  S
C2747      N2754   1.157       .  T
C2748      N2755   1.158       .  T
C2749      N2753   1.157       .  T
C2750      N2756   1.157       .  T
C2751      N2760   1.157       .  T
C2752      N2758   1.157       .  T
C2761      C2762   1.412       .  A
C2761      C2766   1.415       .  A
C2761      C2779   1.451       .  S
C2762      C2767   1.501       .  S
C2762      C2763   1.407       .  A
C2763      C2764   1.412       .  A
C2763      C2768   1.452       .  S
C2764      C2765   1.425       .  A
C2764      C2780   1.453       .  S
C2765      C2766   1.418       .  A
C2766      C2769   1.451       .  S
C2767      C2770   1.412       .  A
C2767      C2774   1.413       .  A
C2768      N2785   1.157       .  T
C2769      N2787   1.157       .  T
C2770      C2771   1.410       .  A
C2770      C2775   1.451       .  S
C2771      C2772   1.414       .  A
C2771      C2777   1.451       .  S
C2772      C2773   1.412       .  A
C2773      C2774   1.414       .  A
C2773      C2776   1.450       .  S
C2774      C2778   1.449       .  S
C2775      N2782   1.157       .  T
C2776      N2783   1.157       .  T
C2777      N2781   1.157       .  T
C2778      N2784   1.157       .  T
C2779      N2788   1.157       .  T
C2780      N2786   1.158       .  T
C2789      C2790   1.413       .  A
C2789      C2794   1.412       .  A
C2789      C2807   1.451       .  S
C2790      C2795   1.501       .  S
C2790      C2791   1.409       .  A
C2791      C2792   1.412       .  A
C2791      C2796   1.451       .  S
C2792      C2793   1.422       .  A
C2792      C2808   1.452       .  S
C2793      C2794   1.415       .  A
C2794      C2797   1.451       .  S
C2795      C2798   1.414       .  A
C2795      C2802   1.412       .  A
C2796      N2813   1.157       .  T
C2797      N2815   1.157       .  T
C2798      C2799   1.410       .  A
C2798      C2803   1.451       .  S
C2799      C2800   1.411       .  A
C2799      C2805   1.451       .  S
C2800      C2801   1.412       .  A
C2801      C2802   1.413       .  A
C2801      C2804   1.450       .  S
C2802      C2806   1.450       .  S
C2803      N2810   1.157       .  T
C2804      N2811   1.157       .  T
C2805      N2809   1.157       .  T
C2806      N2812   1.157       .  T
C2807      N2816   1.157       .  T
C2808      N2814   1.158       .  T
C2817      C2818   1.409       .  A
C2817      C2822   1.414       .  A
C2817      C2835   1.450       .  S
C2818      C2823   1.502       .  S
C2818      C2819   1.413       .  A
C2819      C2820   1.414       .  A
C2819      C2824   1.451       .  S
C2820      C2821   1.414       .  A
C2820      C2836   1.451       .  S
C2821      C2822   1.417       .  A
C2822      C2825   1.451       .  S
C2823      C2826   1.411       .  A
C2823      C2830   1.412       .  A
C2824      N2841   1.157       .  T
C2825      N2843   1.157       .  T
C2826      C2827   1.413       .  A
C2826      C2831   1.450       .  S
C2827      C2828   1.415       .  A
C2827      C2833   1.451       .  S
C2828      C2829   1.411       .  A
C2829      C2830   1.412       .  A
C2829      C2832   1.450       .  S
C2830      C2834   1.450       .  S
C2831      N2838   1.157       .  T
C2832      N2839   1.157       .  T
C2833      N2837   1.157       .  T
C2834      N2840   1.157       .  T
C2835      N2844   1.157       .  T
C2836      N2842   1.157       .  T
C2845      C2846   1.412       .  A
C2845      C2850   1.414       .  A
C2845      C2863   1.449       .  S
C2846      C2851   1.504   1_554  S
C2846      C2847   1.413       .  A
C2847      C2848   1.412       .  A
C2847      C2852   1.450       .  S
C2848      C2849   1.411       .  A
C2848      C2864   1.450       .  S
C2849      C2850   1.413       .  A
C2850      C2853   1.450       .  S
C2851      C2854   1.407       .  A
C2851      C2858   1.414       .  A
C2852      N2869   1.157       .  T
C2853      N2871   1.157       .  T
C2854      C2855   1.413       .  A
C2854      C2859   1.451   1_556  S
C2855      C2856   1.424       .  A
C2855      C2861   1.452       .  S
C2856      C2857   1.416       .  A
C2857      C2858   1.417       .  A
C2857      C2860   1.450       .  S
C2858      C2862   1.451       .  S
C2859      N2866   1.157       .  T
C2860      N2867   1.157       .  T
C2861      N2865   1.158       .  T
C2862      N2868   1.157       .  T
C2863      N2872   1.157   1_554  T
C2864      N2870   1.157       .  T
C2873      C2874   1.413       .  A
C2873      C2878   1.415       .  A
C2873      C2891   1.450       .  S
C2874      C2879   1.506       .  S
C2874      C2875   1.412       .  A
C2875      C2876   1.415       .  A
C2875      C2880   1.450       .  S
C2876      C2877   1.415       .  A
C2876      C2892   1.450       .  S
C2877      C2878   1.413       .  A
C2878      C2881   1.450       .  S
C2879      C2882   1.412       .  A
C2879      C2886   1.411       .  A
C2880      N2897   1.157       .  T
C2881      N2899   1.157       .  T
C2882      C2883   1.414       .  A
C2882      C2887   1.451       .  S
C2883      C2884   1.417       .  A
C2883      C2889   1.451       .  S
C2884      C2885   1.418       .  A
C2885      C2886   1.416       .  A
C2885      C2888   1.451       .  S
C2886      C2890   1.450       .  S
C2887      N2894   1.157       .  T
C2888      N2895   1.157       .  T
C2889      N2893   1.157       .  T
C2890      N2896   1.157       .  T
C2891      N2900   1.157       .  T
C2892      N2898   1.157       .  T
C2901      C2902   1.407       .  A
C2901      C2906   1.409       .  A
C2901      C2919   1.451       .  S
C2902      C2907   1.494       .  S
C2902      C2903   1.413       .  A
C2903      C2904   1.412       .  A
C2903      C2908   1.451       .  S
C2904      C2905   1.414       .  A
C2904      C2920   1.451       .  S
C2905      C2906   1.419       .  A
C2906      C2909   1.452       .  S
C2907      C2910   1.410       .  A
C2907      C2914   1.411       .  A
C2908      N2925   1.157       .  T
C2909      N2927   1.158       .  T
C2910      C2911   1.408       .  A
C2910      C2915   1.450       .  S
C2911      C2912   1.411       .  A
C2911      C2917   1.451       .  S
C2912      C2913   1.412       .  A
C2913      C2914   1.411       .  A
C2913      C2916   1.450       .  S
C2914      C2918   1.450       .  S
C2915      N2922   1.157       .  T
C2916      N2923   1.157       .  T
C2917      N2921   1.157       .  T
C2918      N2924   1.157       .  T
C2919      N2928   1.157       .  T
C2920      N2926   1.157       .  T
C2929      C2930   1.408       .  A
C2929      C2934   1.413       .  A
C2929      C2947   1.451       .  S
C2930      C2935   1.506       .  S
C2930      C2931   1.414       .  A
C2931      C2932   1.417       .  A
C2931      C2936   1.451       .  S
C2932      C2933   1.418       .  A
C2932      C2948   1.450       .  S
C2933      C2934   1.425       .  A
C2934      C2937   1.453       .  S
C2935      C2938   1.412       .  A
C2935      C2942   1.415       .  A
C2936      N2953   1.157       .  T
C2937      N2955   1.158       .  T
C2938      C2939   1.412       .  A
C2938      C2943   1.450       .  S
C2939      C2940   1.413       .  A
C2939      C2945   1.451       .  S
C2940      C2941   1.412       .  A
C2941      C2942   1.414       .  A
C2941      C2944   1.450       .  S
C2942      C2946   1.450       .  S
C2943      N2950   1.157       .  T
C2944      N2951   1.157       .  T
C2945      N2949   1.157       .  T
C2946      N2952   1.157       .  T
C2947      N2956   1.157       .  T
C2948      N2954   1.157       .  T
C2957      C2958   1.412       .  A
C2957      C2962   1.412       .  A
C2957      C2975   1.450       .  S
C2958      C2963   1.500       .  S
C2958      C2959   1.412       .  A
C2959      C2960   1.412       .  A
C2959      C2964   1.450       .  S
C2960      C2961   1.413       .  A
C2960      C2976   1.450   1_556  S
C2961      C2962   1.412       .  A
C2962      C2965   1.450       .  S
C2963      C2966   1.413       .  A
C2963      C2970   1.408       .  A
C2964      N2981   1.157       .  T
C2965      N2983   1.157       .  T
C2966      C2967   1.414       .  A
C2966      C2971   1.451       .  S
C2967      C2968   1.415       .  A
C2967      C2973   1.450       .  S
C2968      C2969   1.420       .  A
C2969      C2970   1.411       .  A
C2969      C2972   1.452       .  S
C2970      C2974   1.451       .  S
C2971      N2978   1.157       .  T
C2972      N2979   1.158       .  T
C2973      N2977   1.157       .  T
C2974      N2980   1.157       .  T
C2975      N2984   1.157       .  T
C2976      N2982   1.157       .  T
C2985      C2986   1.412       .  A
C2985      C2990   1.414       .  A
C2985      C3003   1.451       .  S
C2986      C2991   1.502       .  S
C2986      C2987   1.408       .  A
C2987      C2988   1.412       .  A
C2987      C2992   1.452   1_554  S
C2988      C2989   1.426       .  A
C2988      C3004   1.452       .  S
C2989      C2990   1.421       .  A
C2990      C2993   1.451       .  S
C2991      C2994   1.414   1_554  A
C2991      C2998   1.413   1_554  A
C2992      N3009   1.157       .  T
C2993      N3011   1.157       .  T
C2994      C2995   1.411       .  A
C2994      C2999   1.450   1_556  S
C2995      C2996   1.411       .  A
C2995      C3001   1.451       .  S
C2996      C2997   1.412       .  A
C2997      C2998   1.412       .  A
C2997      C3000   1.451       .  S
C2998      C3002   1.450       .  S
C2999      N3006   1.157       .  T
C3000      N3007   1.157   1_655  T
C3001      N3005   1.157       .  T
C3002      N3008   1.157   1_556  T
C3003      N3012   1.157       .  T
C3004      N3010   1.158       .  T
C3013      C3014   1.411       .  A
C3013      C3018   1.412       .  A
C3013      C3031   1.450       .  S
C3014      C3019   1.499       .  S
C3014      C3015   1.412       .  A
C3015      C3016   1.412       .  A
C3015      C3020   1.451       .  S
C3016      C3017   1.412       .  A
C3016      C3032   1.450       .  S
C3017      C3018   1.412       .  A
C3018      C3021   1.450       .  S
C3019      C3022   1.407       .  A
C3019      C3026   1.410       .  A
C3020      N3037   1.157       .  T
C3021      N3039   1.157       .  T
C3022      C3023   1.413       .  A
C3022      C3027   1.451       .  S
C3023      C3024   1.425       .  A
C3023      C3029   1.452       .  S
C3024      C3025   1.420       .  A
C3025      C3026   1.413       .  A
C3025      C3028   1.451       .  S
C3026      C3030   1.451       .  S
C3027      N3034   1.157       .  T
C3028      N3035   1.157       .  T
C3029      N3033   1.158       .  T
C3030      N3036   1.157       .  T
C3031      N3040   1.157       .  T
C3032      N3038   1.157       .  T
C3041      C3042   1.411       .  A
C3041      C3046   1.413       .  A
C3041      C3059   1.451   1_455  S
C3042      C3047   1.508   1_455  S
C3042      C3043   1.414       .  A
C3043      C3044   1.417       .  A
C3043      C3048   1.449       .  S
C3044      C3045   1.413       .  A
C3044      C3060   1.449       .  S
C3045      C3046   1.415       .  A
C3046      C3049   1.450       .  S
C3047      C3050   1.412       .  A
C3047      C3054   1.408       .  A
C3048      N3065   1.157       .  T
C3049      N3067   1.157       .  T
C3050      C3051   1.418       .  A
C3050      C3055   1.451       .  S
C3051      C3052   1.421       .  A
C3051      C3057   1.450       .  S
C3052      C3053   1.428       .  A
C3053      C3054   1.415       .  A
C3053      C3056   1.453       .  S
C3054      C3058   1.452   1_655  S
C3055      N3062   1.157       .  T
C3056      N3063   1.158       .  T
C3057      N3061   1.157       .  T
C3058      N3064   1.157       .  T
C3059      N3068   1.157       .  T
C3060      N3066   1.157       .  T
C3069      C3070   1.407       .  A
C3069      C3074   1.413       .  A
C3069      C3087   1.452       .  S
C3070      C3075   1.502       .  S
C3070      C3071   1.412       .  A
C3071      C3072   1.415       .  A
C3071      C3076   1.451       .  S
C3072      C3073   1.419       .  A
C3072      C3088   1.451       .  S
C3073      C3074   1.425       .  A
C3074      C3077   1.452       .  S
C3075      C3078   1.412       .  A
C3075      C3082   1.413       .  A
C3076      N3093   1.157       .  T
C3077      N3095   1.158       .  T
C3078      C3079   1.413       .  A
C3078      C3083   1.449       .  S
C3079      C3080   1.412       .  A
C3079      C3085   1.450       .  S
C3080      C3081   1.411       .  A
C3081      C3082   1.411       .  A
C3081      C3084   1.451       .  S
C3082      C3086   1.450       .  S
C3083      N3090   1.157       .  T
C3084      N3091   1.157       .  T
C3085      N3089   1.157       .  T
C3086      N3092   1.157       .  T
C3087      N3096   1.157       .  T
C3088      N3094   1.157       .  T
C3097      C3098   1.406       .  A
C3097      C3102   1.411       .  A
C3097      C3115   1.451       .  S
C3098      C3103   1.496       .  S
C3098      C3099   1.411       .  A
C3099      C3100   1.412       .  A
C3099      C3104   1.452       .  S
C3100      C3101   1.419       .  A
C3100      C3116   1.451       .  S
C3101      C3102   1.423       .  A
C3102      C3105   1.452       .  S
C3103      C3106   1.409       .  A
C3103      C3110   1.413       .  A
C3104      N3121   1.157       .  T
C3105      N3123   1.157       .  T
C3106      C3107   1.407       .  A
C3106      C3111   1.451       .  S
C3107      C3108   1.416       .  A
C3107      C3113   1.452   1_554  S
C3108      C3109   1.412       .  A
C3109      C3110   1.413       .  A
C3109      C3112   1.449       .  S
C3110      C3114   1.450       .  S
C3111      N3118   1.157       .  T
C3112      N3119   1.157       .  T
C3113      N3117   1.157       .  T
C3114      N3120   1.157       .  T
C3115      N3124   1.157       .  T
C3116      N3122   1.158       .  T
C3125      C3126   1.412       .  A
C3125      C3130   1.413       .  A
C3125      C3143   1.450       .  S
C3126      C3131   1.501       .  S
C3126      C3127   1.409       .  A
C3127      C3128   1.413       .  A
C3127      C3132   1.451       .  S
C3128      C3129   1.421       .  A
C3128      C3144   1.452       .  S
C3129      C3130   1.415       .  A
C3130      C3133   1.450       .  S
C3131      C3134   1.410       .  A
C3131      C3138   1.412       .  A
C3132      N3149   1.157       .  T
C3133      N3151   1.157       .  T
C3134      C3135   1.410       .  A
C3134      C3139   1.452       .  S
C3135      C3136   1.418       .  A
C3135      C3141   1.451       .  S
C3136      C3137   1.414       .  A
C3137      C3138   1.416       .  A
C3137      C3140   1.449       .  S
C3138      C3142   1.449       .  S
C3139      N3146   1.157       .  T
C3140      N3147   1.157       .  T
C3141      N3145   1.157       .  T
C3142      N3148   1.157       .  T
C3143      N3152   1.157       .  T
C3144      N3150   1.158       .  T
C3153      C3154   1.408       .  A
C3153      C3158   1.414       .  A
C3153      C3171   1.450       .  S
C3154      C3159   1.502       .  S
C3154      C3155   1.412       .  A
C3155      C3156   1.414       .  A
C3155      C3160   1.451       .  S
C3156      C3157   1.418       .  A
C3156      C3172   1.451       .  S
C3157      C3158   1.421       .  A
C3158      C3161   1.451       .  S
C3159      C3162   1.411       .  A
C3159      C3166   1.412       .  A
C3160      N3177   1.157       .  T
C3161      N3179   1.157       .  T
C3162      C3163   1.414       .  A
C3162      C3167   1.450       .  S
C3163      C3164   1.414       .  A
C3163      C3169   1.450       .  S
C3164      C3165   1.413       .  A
C3165      C3166   1.413       .  A
C3165      C3168   1.451       .  S
C3166      C3170   1.450       .  S
C3167      N3174   1.157       .  T
C3168      N3175   1.157       .  T
C3169      N3173   1.157       .  T
C3170      N3176   1.157       .  T
C3171      N3180   1.157       .  T
C3172      N3178   1.157       .  T
C3181      C3182   1.413       .  A
C3181      C3186   1.411       .  A
C3181      C3199   1.450       .  S
C3182      C3187   1.500       .  S
C3182      C3183   1.412       .  A
C3183      C3184   1.411       .  A
C3183      C3188   1.450       .  S
C3184      C3185   1.412       .  A
C3184      C3200   1.451       .  S
C3185      C3186   1.411       .  A
C3186      C3189   1.450       .  S
C3187      C3190   1.409       .  A
C3187      C3194   1.413       .  A
C3188      N3205   1.157       .  T
C3189      N3207   1.157   1_655  T
C3190      C3191   1.412       .  A
C3190      C3195   1.451       .  S
C3191      C3192   1.420       .  A
C3191      C3197   1.452       .  S
C3192      C3193   1.415       .  A
C3193      C3194   1.412       .  A
C3193      C3196   1.451       .  S
C3194      C3198   1.451       .  S
C3195      N3202   1.157       .  T
C3196      N3203   1.157       .  T
C3197      N3201   1.158       .  T
C3198      N3204   1.157       .  T
C3199      N3208   1.157       .  T
C3200      N3206   1.157       .  T
C3209      C3210   1.409       .  A
C3209      C3214   1.414       .  A
C3209      C3227   1.450   1_655  S
C3210      C3215   1.505   1_655  S
C3210      C3211   1.414       .  A
C3211      C3212   1.416       .  A
C3211      C3216   1.451       .  S
C3212      C3213   1.416       .  A
C3212      C3228   1.450       .  S
C3213      C3214   1.421       .  A
C3214      C3217   1.452       .  S
C3215      C3218   1.411       .  A
C3215      C3222   1.413       .  A
C3216      N3233   1.157       .  T
C3217      N3235   1.158       .  T
C3218      C3219   1.412       .  A
C3218      C3223   1.450       .  S
C3219      C3220   1.414       .  A
C3219      C3225   1.450       .  S
C3220      C3221   1.412       .  A
C3221      C3222   1.416       .  A
C3221      C3224   1.449       .  S
C3222      C3226   1.449       .  S
C3223      N3230   1.157   1_455  T
C3224      N3231   1.157       .  T
C3225      N3229   1.157       .  T
C3226      N3232   1.157       .  T
C3227      N3236   1.157       .  T
C3228      N3234   1.157       .  T
C3237      C3238   1.408       .  A
C3237      C3242   1.412       .  A
C3237      C3255   1.451       .  S
C3238      C3243   1.502       .  S
C3238      C3239   1.413       .  A
C3239      C3240   1.415       .  A
C3239      C3244   1.451       .  S
C3240      C3241   1.417       .  A
C3240      C3256   1.451       .  S
C3241      C3242   1.421       .  A
C3242      C3245   1.452       .  S
C3243      C3246   1.412       .  A
C3243      C3250   1.412       .  A
C3244      N3261   1.157       .  T
C3245      N3263   1.158       .  T
C3246      C3247   1.412       .  A
C3246      C3251   1.450       .  S
C3247      C3248   1.412       .  A
C3247      C3253   1.450       .  S
C3248      C3249   1.413       .  A
C3249      C3250   1.412       .  A
C3249      C3252   1.450       .  S
C3250      C3254   1.450       .  S
C3251      N3258   1.157       .  T
C3252      N3259   1.157       .  T
C3253      N3257   1.157       .  T
C3254      N3260   1.157       .  T
C3255      N3264   1.157       .  T
C3256      N3262   1.157       .  T
C3265      C3266   1.413       .  A
C3265      C3270   1.413       .  A
C3265      C3283   1.450       .  S
C3266      C3271   1.501       .  S
C3266      C3267   1.411       .  A
C3267      C3268   1.411       .  A
C3267      C3272   1.450       .  S
C3268      C3269   1.412       .  A
C3268      C3284   1.450       .  S
C3269      C3270   1.412       .  A
C3270      C3273   1.450       .  S
C3271      C3274   1.411       .  A
C3271      C3278   1.409       .  A
C3272      N3289   1.157       .  T
C3273      N3291   1.157       .  T
C3274      C3275   1.412       .  A
C3274      C3279   1.452       .  S
C3275      C3276   1.418       .  A
C3275      C3281   1.451       .  S
C3276      C3277   1.422       .  A
C3277      C3278   1.414       .  A
C3277      C3280   1.452       .  S
C3278      C3282   1.451       .  S
C3279      N3286   1.157       .  T
C3280      N3287   1.158       .  T
C3281      N3285   1.157       .  T
C3282      N3288   1.157       .  T
C3283      N3292   1.157       .  T
C3284      N3290   1.157       .  T
C3293      C3294   1.407       .  A
C3293      C3298   1.413       .  A
C3293      C3311   1.451       .  S
C3294      C3299   1.503       .  S
C3294      C3295   1.412       .  A
C3295      C3296   1.416       .  A
C3295      C3300   1.451       .  S
C3296      C3297   1.420       .  A
C3296      C3312   1.451       .  S
C3297      C3298   1.425       .  A
C3298      C3301   1.452       .  S
C3299      C3302   1.411       .  A
C3299      C3306   1.413       .  A
C3300      N3317   1.157       .  T
C3301      N3319   1.158       .  T
C3302      C3303   1.413       .  A
C3302      C3307   1.450       .  S
C3303      C3304   1.414       .  A
C3303      C3309   1.449       .  S
C3304      C3305   1.412       .  A
C3305      C3306   1.413       .  A
C3305      C3308   1.450       .  S
C3306      C3310   1.450       .  S
C3307      N3314   1.157       .  T
C3308      N3315   1.157       .  T
C3309      N3313   1.157       .  T
C3310      N3316   1.157       .  T
C3311      N3320   1.157       .  T
C3312      N3318   1.157       .  T
C3321      C3322   1.409       .  A
C3321      C3326   1.413       .  A
C3321      C3339   1.451       .  S
C3322      C3327   1.503       .  S
C3322      C3323   1.412       .  A
C3323      C3324   1.414       .  A
C3323      C3328   1.451       .  S
C3324      C3325   1.418       .  A
C3324      C3340   1.451       .  S
C3325      C3326   1.421       .  A
C3326      C3329   1.451       .  S
C3327      C3330   1.413       .  A
C3327      C3334   1.413       .  A
C3328      N3345   1.157       .  T
C3329      N3347   1.157       .  T
C3330      C3331   1.412       .  A
C3330      C3335   1.450       .  S
C3331      C3332   1.412       .  A
C3331      C3337   1.451       .  S
C3332      C3333   1.413       .  A
C3333      C3334   1.413       .  A
C3333      C3336   1.451       .  S
C3334      C3338   1.450       .  S
C3335      N3342   1.157       .  T
C3336      N3343   1.157       .  T
C3337      N3341   1.157       .  T
C3338      N3344   1.157       .  T
C3339      N3348   1.157       .  T
C3340      N3346   1.157       .  T
C3349      C3350   1.413       .  A
C3349      C3354   1.415       .  A
C3349      C3367   1.450       .  S
C3350      C3355   1.504       .  S
C3350      C3351   1.410       .  A
C3351      C3352   1.412       .  A
C3351      C3356   1.450       .  S
C3352      C3353   1.416       .  A
C3352      C3368   1.451       .  S
C3353      C3354   1.414       .  A
C3354      C3357   1.450       .  S
C3355      C3358   1.413       .  A
C3355      C3362   1.411       .  A
C3356      N3373   1.157       .  T
C3357      N3375   1.157       .  T
C3358      C3359   1.413       .  A
C3358      C3363   1.451       .  S
C3359      C3360   1.414       .  A
C3359      C3365   1.451       .  S
C3360      C3361   1.416       .  A
C3361      C3362   1.415       .  A
C3361      C3364   1.450       .  S
C3362      C3366   1.449       .  S
C3363      N3370   1.157       .  T
C3364      N3371   1.157       .  T
C3365      N3369   1.157       .  T
C3366      N3372   1.157       .  T
C3367      N3376   1.157       .  T
C3368      N3374   1.157       .  T
C3377      C3378   1.411       .  A
C3377      C3382   1.409       .  A
C3377      C3395   1.451       .  S
C3378      C3383   1.497       .  S
C3378      C3379   1.412       .  A
C3379      C3380   1.413       .  A
C3379      C3384   1.450       .  S
C3380      C3381   1.412       .  A
C3380      C3396   1.450       .  S
C3381      C3382   1.413       .  A
C3382      C3385   1.451       .  S
C3383      C3386   1.407       .  A
C3383      C3390   1.411       .  A
C3384      N3401   1.157       .  T
C3385      N3403   1.157       .  T
C3386      C3387   1.412       .  A
C3386      C3391   1.451       .  S
C3387      C3388   1.421       .  A
C3387      C3393   1.452       .  S
C3388      C3389   1.417       .  A
C3389      C3390   1.413       .  A
C3389      C3392   1.451       .  S
C3390      C3394   1.451       .  S
C3391      N3398   1.157       .  T
C3392      N3399   1.157       .  T
C3393      N3397   1.158       .  T
C3394      N3400   1.157       .  T
C3395      N3404   1.157       .  T
C3396      N3402   1.157       .  T
C3405      C3406   1.413       .  A
C3405      C3410   1.413       .  A
C3405      C3423   1.451       .  S
C3406      C3411   1.503       .  S
C3406      C3407   1.410       .  A
C3407      C3408   1.415       .  A
C3407      C3412   1.449       .  S
C3408      C3409   1.417       .  A
C3408      C3424   1.450       .  S
C3409      C3410   1.415       .  A
C3410      C3413   1.451       .  S
C3411      C3414   1.413       .  A
C3411      C3418   1.411       .  A
C3412      N3429   1.157       .  T
C3413      N3431   1.157       .  T
C3414      C3415   1.414       .  A
C3414      C3419   1.450       .  S
C3415      C3416   1.412       .  A
C3415      C3421   1.450       .  S
C3416      C3417   1.414       .  A
C3417      C3418   1.413       .  A
C3417      C3420   1.451       .  S
C3418      C3422   1.449       .  S
C3419      N3426   1.157       .  T
C3420      N3427   1.157       .  T
C3421      N3425   1.157       .  T
C3422      N3428   1.157       .  T
C3423      N3432   1.157       .  T
C3424      N3430   1.157       .  T
C3433      C3434   1.410       .  A
C3433      C3438   1.414       .  A
C3433      C3451   1.451       .  S
C3434      C3439   1.505       .  S
C3434      C3435   1.413       .  A
C3435      C3436   1.415       .  A
C3435      C3440   1.451       .  S
C3436      C3437   1.417       .  A
C3436      C3452   1.451       .  S
C3437      C3438   1.420       .  A
C3438      C3441   1.451       .  S
C3439      C3442   1.412       .  A
C3439      C3446   1.413       .  A
C3440      N3457   1.157       .  T
C3441      N3459   1.158       .  T
C3442      C3443   1.412       .  A
C3442      C3447   1.450       .  S
C3443      C3444   1.413       .  A
C3443      C3449   1.451       .  S
C3444      C3445   1.412       .  A
C3445      C3446   1.415       .  A
C3445      C3448   1.450       .  S
C3446      C3450   1.449       .  S
C3447      N3454   1.157       .  T
C3448      N3455   1.157       .  T
C3449      N3453   1.157       .  T
C3450      N3456   1.157       .  T
C3451      N3460   1.157       .  T
C3452      N3458   1.157       .  T
C3461      C3462   1.411       .  A
C3461      C3466   1.413       .  A
C3461      C3479   1.449       .  S
C3462      C3467   1.501       .  S
C3462      C3463   1.413       .  A
C3463      C3464   1.412       .  A
C3463      C3468   1.451       .  S
C3464      C3465   1.411       .  A
C3464      C3480   1.450       .  S
C3465      C3466   1.413       .  A
C3466      C3469   1.450       .  S
C3467      C3470   1.409       .  A
C3467      C3474   1.412       .  A
C3468      N3485   1.157       .  T
C3469      N3487   1.157       .  T
C3470      C3471   1.412       .  A
C3470      C3475   1.450       .  S
C3471      C3472   1.417       .  A
C3471      C3477   1.451       .  S
C3472      C3473   1.417       .  A
C3473      C3474   1.414       .  A
C3473      C3476   1.451       .  S
C3474      C3478   1.451       .  S
C3475      N3482   1.157       .  T
C3476      N3483   1.157       .  T
C3477      N3481   1.157       .  T
C3478      N3484   1.157       .  T
C3479      N3488   1.157       .  T
C3480      N3486   1.157       .  T
