geometry optimzed in LAMMPS
_audit_creation_date              2020-11-30 
_audit_creation_method            'lammps2cif' 
_symmetry_space_group_name_H-M    'P1' 
_symmetry_Int_Tables_number       1 
_symmetry_cell_setting            triclinic 
loop_ 
_symmetry_equiv_pos_as_xyz 
  x,y,z 
_cell_length_a                    30.95841047 
_cell_length_b                    30.971577415961747 
_cell_length_c                    76.30536655040186 
_cell_angle_alpha                 89.85704352728115 
_cell_angle_beta                  89.93517021881082 
_cell_angle_gamma                 89.92842554697211 
loop_ 
_atom_site_label 
_atom_site_type_symbol 
_atom_site_fract_x 
_atom_site_fract_y 
_atom_site_fract_z 
_atom_site_charge 
O1          O  0.78697737  0.79309285  0.72855408    -0.72900
O2          O  0.80586464  0.70429758  0.76647530    -0.73900
O3          O  0.78696624  0.70040133  0.73016769    -0.62500
O4          O  0.80639143  0.79621655  0.76484813    -0.70900
O5          O  0.73624834  0.79701133  0.77074028    -0.70500
O6          O  0.71682385  0.70170852  0.73587112    -0.61700
O7          O  0.73553796  0.70483321  0.77208733    -0.74200
O8          O  0.71713117  0.79393211  0.73464494    -0.73000
Cu9        Cu  0.79900016  0.74845380  0.74727678     1.04600
Cu10       Cu  0.72404159  0.74938154  0.75354553     1.04300
C11         C  0.74920020  0.80844683  0.72588180     0.93300
C12         C  0.77343785  0.69036153  0.77516055     0.92400
C13         C  0.74903713  0.68538710  0.72772453     0.84600
C14         C  0.77416739  0.81216150  0.77307690     0.90900
O15         O  0.21900144  0.70227956  0.72774014    -0.72900
O16         O  0.19836217  0.79394615  0.76403932    -0.73900
O17         O  0.21769306  0.79417440  0.72767452    -0.62500
O18         O  0.19985354  0.70137019  0.76401721    -0.70900
O19         O  0.26988704  0.70210686  0.76966269    -0.70500
O20         O  0.28739534  0.79620497  0.73392393    -0.61700
O21         O  0.26794859  0.79441175  0.77023690    -0.74200
O22         O  0.28929242  0.70465702  0.73341591    -0.73000
Cu23       Cu  0.20627798  0.74793567  0.74568851     1.04600
Cu24       Cu  0.28100816  0.74938035  0.75206138     1.04300
C25         C  0.25752252  0.68939762  0.72478427     0.93300
C26         C  0.22986704  0.80915117  0.77285099     0.92400
C27         C  0.25518912  0.81014384  0.72508216     0.84600
C28         C  0.23227510  0.68637819  0.77240030     0.90900
O29         O  0.03855758  0.47412339  0.47921433    -0.72900
O30         O  0.94739629  0.45382559  0.51590309    -0.73900
O31         O  0.94707661  0.47249968  0.47976137    -0.62500
O32         O  0.03956412  0.45444487  0.51571539    -0.70900
O33         O  0.03830358  0.52448517  0.52181414    -0.70500
O34         O  0.94615565  0.54272522  0.48523844    -0.61700
O35         O  0.94602375  0.52389448  0.52150187    -0.74200
O36         O  0.03809524  0.54401550  0.48538014    -0.73000
Cu37       Cu  0.99329929  0.46130622  0.49745778     1.04600
Cu38       Cu  0.99222551  0.53622548  0.50371581     1.04300
C39         C  0.05269997  0.51234577  0.47649285     0.93300
C40         C  0.93155293  0.48583570  0.52425665     0.92400
C41         C  0.93135425  0.50999445  0.47702534     0.84600
C42         C  0.05384320  0.48669096  0.52433669     0.90900
N43         N  0.76000289  0.48251277  0.60018022    -0.27200
N44         N  0.73934406  0.45124586  0.59196129    -0.35100
C45         C  0.75868665  0.44425699  0.57638384     0.01100
C46         C  0.79259917  0.47311176  0.57471869     0.07100
C47         C  0.79276432  0.49643556  0.59011086    -0.06000
H48         H  0.74932667  0.41956834  0.56713810     0.07800
H49         H  0.81588036  0.52073566  0.59397366     0.09000
Cu50       Cu  0.68752303  0.41888193  0.60328567     0.44200
Cu51       Cu  0.74470444  0.50305518  0.62517494     0.42000
Cu52       Cu  0.66173692  0.44623842  0.64916998     0.43900
N53         N  0.63989875  0.38890706  0.61819879    -0.34600
N54         N  0.63145569  0.39730845  0.63487069    -0.28900
C55         C  0.60006914  0.37036175  0.64043958    -0.05000
C56         C  0.58797886  0.34427297  0.62656239     0.07200
C57         C  0.61380624  0.35702968  0.61271615     0.01000
H58         H  0.58665384  0.37018579  0.65354800     0.08700
H59         H  0.61406769  0.34366951  0.59961578     0.07800
N60         N  0.69561527  0.49900873  0.65927585    -0.36100
N61         N  0.72605223  0.51935793  0.65032446    -0.28200
C62         C  0.74130865  0.55231352  0.65992078    -0.03500
C63         C  0.71927605  0.55310177  0.67564024     0.05100
C64         C  0.69060189  0.51880949  0.67487650     0.03200
H65         H  0.76593659  0.57466143  0.65560123     0.08300
H66         H  0.66746436  0.50937020  0.68479219     0.07200
N67         N  0.22931115  0.48233281  0.59989405    -0.27200
N68         N  0.24105062  0.44447692  0.59352227    -0.35100
C69         C  0.21417906  0.43424687  0.58028075     0.01100
C70         C  0.18382488  0.46708195  0.57840918     0.07100
C71         C  0.19522625  0.49731973  0.59088246    -0.06000
H72         H  0.21632082  0.40492374  0.57264320     0.07800
H73         H  0.18064458  0.52857581  0.59314570     0.09000
Cu74       Cu  0.29308925  0.40944531  0.60370594     0.44200
Cu75       Cu  0.25684715  0.51045622  0.62163351     0.42000
Cu76       Cu  0.33147039  0.44641023  0.64669049     0.43900
N77         N  0.34450891  0.38144463  0.61740665    -0.34600
N78         N  0.35697057  0.39365490  0.63323850    -0.28900
C79         C  0.38995311  0.36835279  0.63847651    -0.05000
C80         C  0.39924196  0.33932091  0.62524365     0.07200
C81         C  0.36990623  0.34860894  0.61207146     0.01000
H82         H  0.40680691  0.37171209  0.65082490     0.08700
H83         H  0.36705080  0.33249498  0.59955025     0.07800
N84         N  0.30394927  0.50342980  0.65595435    -0.36100
N85         N  0.27761411  0.52731974  0.64634104    -0.28200
C86         C  0.26490660  0.56182811  0.65563836    -0.03500
C87         C  0.28375962  0.55944569  0.67197413     0.05100
C88         C  0.30864763  0.52224049  0.67174802     0.03200
H89         H  0.24285167  0.58637984  0.65097238     0.08300
H90         H  0.32876052  0.50988371  0.68220377     0.07200
O91         O  0.04443615  0.03973392  0.51355687    -0.72900
O92         O  0.94950437  0.02844595  0.47802123    -0.73900
O93         O  0.95248491  0.04168766  0.51489736    -0.62500
O94         O  0.04132203  0.02606189  0.47679776    -0.70900
O95         O  0.04000604  0.95570422  0.48125101    -0.70500
O96         O  0.95097504  0.97089314  0.51894782    -0.61700
O97         O  0.94834626  0.95768634  0.48211198    -0.74200
O98         O  0.04306548  0.96895856  0.51782641    -0.73000
Cu99       Cu  0.99692624  0.03645258  0.49567711     1.04600
Cu100      Cu  0.99550050  0.96089839  0.50019999     1.04300
C101        C  0.05931786  0.00596059  0.52108073     0.93300
C102        C  0.93382207  0.99142094  0.47441792     0.92400
C103        C  0.93738515  0.00858859  0.52286411     0.84600
C104        C  0.05506532  0.98821920  0.47300375     0.90900
N105        N  0.23422048  0.01136026  0.59582048    -0.27200
N106        N  0.25250115  0.04477223  0.58793184    -0.35100
C107        C  0.23026146  0.05373796  0.57316706     0.01100
C108        C  0.19652846  0.02456304  0.57183968     0.07100
C109        C  0.20021988  0.99809179  0.58632346    -0.06000
H110        H  0.23764418  0.07991597  0.56423807     0.07800
H111        H  0.17900578  0.97184604  0.58995721     0.09000
Cu112      Cu  0.30532943  0.07771567  0.59845419     0.44200
Cu113      Cu  0.25357306  0.98666901  0.61980894     0.42000
Cu114      Cu  0.33269405  0.04695650  0.64355455     0.43900
N115        N  0.35336500  0.10743090  0.61341050    -0.34600
N116        N  0.36166164  0.09742657  0.62995169    -0.28900
C117        C  0.39265107  0.12383918  0.63605179    -0.05000
C118        C  0.40490569  0.15147405  0.62270405     0.07200
C119        C  0.37946762  0.14011305  0.60851989     0.01000
H120        H  0.40574128  0.12256527  0.64919562     0.08700
H121        H  0.37942671  0.15499860  0.59566410     0.07800
N122        N  0.30372065  0.99153746  0.65345770    -0.36100
N123        N  0.27478912  0.96920323  0.64456848    -0.28200
C124        C  0.26207918  0.93517140  0.65425267    -0.03500
C125        C  0.28452740  0.93576764  0.66990143     0.05100
C126        C  0.31033296  0.97219878  0.66905636     0.03200
H127        H  0.23820198  0.91179575  0.65023127     0.08300
H128        H  0.33172472  0.98422433  0.67911313     0.07200
N129        N  0.72529179  0.97620427  0.64877562    -0.27200
N130        N  0.69412463  0.99622574  0.65739183    -0.35100
C131        C  0.68695500  0.97498159  0.67258640     0.01100
C132        C  0.71480285  0.93982625  0.67335033     0.07100
C133        C  0.73880070  0.94201575  0.65813109    -0.06000
H134        H  0.66401869  0.98502093  0.68248358     0.07800
H135        H  0.76456760  0.92048891  0.65420895     0.09000
Cu136      Cu  0.66409048  0.05169046  0.64748416     0.44200
Cu137      Cu  0.74974546  0.99658432  0.62500115     0.42000
Cu138      Cu  0.70140201  0.08825205  0.60384787     0.43900
N139        N  0.63713233  0.10315815  0.63341186    -0.34600
N140        N  0.64923011  0.11511497  0.61745668    -0.28900
C141        C  0.62325429  0.14739699  0.61195521    -0.05000
C142        C  0.59382539  0.15658070  0.62511704     0.07200
C143        C  0.60372927  0.12805933  0.63852180     0.01000
H144        H  0.62590987  0.16333958  0.59935411     0.08700
H145        H  0.58721141  0.12498785  0.65097722     0.07800
N146        N  0.75604257  0.05662246  0.59409834    -0.36100
N147        N  0.77320049  0.02262705  0.60197059    -0.28200
C148        C  0.80742031  0.00876302  0.59270082    -0.03500
C149        C  0.81255273  0.03559876  0.57838965     0.05100
C150        C  0.77924006  0.06542044  0.57955514     0.03200
H151        H  0.82701191  0.98098617  0.59608758     0.08300
H152        H  0.77190015  0.09098708  0.57034760     0.07200
O153        O  0.45918432  0.47152405  0.02270254    -0.72900
O154        O  0.55136804  0.45686199  0.98611187    -0.73900
O155        O  0.55135225  0.47279564  0.02272295    -0.62500
O156        O  0.45962559  0.45528053  0.98630379    -0.70900
O157        O  0.45858435  0.52551033  0.98101950    -0.70500
O158        O  0.54960535  0.54346917  0.01802309    -0.61700
O159        O  0.55071069  0.52727852  0.98118217    -0.74200
O160        O  0.45752512  0.54190061  0.01752704    -0.73000
Cu161      Cu  0.50550987  0.46173685  0.00466690     1.04600
Cu162      Cu  0.50416425  0.53702550  0.99926952     1.04300
C163        C  0.44288642  0.50874692  0.02556801     0.93300
C164        C  0.56567338  0.48975671  0.97778582     0.92400
C165        C  0.56486973  0.51078256  0.02619378     0.84600
C166        C  0.44435676  0.48751552  0.97790318     0.90900
N167        N  0.77361960  0.51760437  0.85092738    -0.27200
N168        N  0.80792954  0.50036359  0.84334655    -0.35100
C169        C  0.81706752  0.52279881  0.82866951     0.01100
C170        C  0.78669651  0.55529505  0.82696589     0.07100
C171        C  0.75985464  0.55129543  0.84131702    -0.06000
H172        H  0.84378593  0.51603824  0.81994300     0.07800
H173        H  0.73259727  0.57156495  0.84461735     0.09000
Cu174      Cu  0.84051253  0.44775539  0.85382757     0.44200
Cu175      Cu  0.74777586  0.49550837  0.87421885     0.42000
Cu176      Cu  0.80357862  0.41019507  0.89711204     0.43900
N177        N  0.86913798  0.39780537  0.86779727    -0.34600
N178        N  0.85715190  0.38536839  0.88369413    -0.28900
C179        C  0.88373947  0.35353836  0.88907518    -0.05000
C180        C  0.91330979  0.34521543  0.87586531     0.07200
C181        C  0.90300118  0.37374365  0.86256795     0.01000
H182        H  0.88107348  0.33691443  0.90152910     0.08700
H183        H  0.91914938  0.37707751  0.85004532     0.07800
N184        N  0.74720619  0.43952322  0.90654044    -0.36100
N185        N  0.72721872  0.47081867  0.89794729    -0.28200
C186        C  0.69285889  0.48411067  0.90726367    -0.03500
C187        C  0.69055923  0.45973699  0.92239108     0.05100
C188        C  0.72570778  0.43195765  0.92162715     0.03200
H189        H  0.67140232  0.50999971  0.90339902     0.08300
H190        H  0.73553769  0.40880426  0.93148669     0.07200
N191        N  0.23631071  0.51921752  0.85051506    -0.27200
N192        N  0.20462051  0.49836442  0.84262249    -0.35100
C193        C  0.19665179  0.51728666  0.82705288     0.01100
C194        C  0.22524275  0.55118347  0.82493615     0.07100
C195        C  0.24951207  0.55182205  0.84014814    -0.06000
H196        H  0.17162907  0.50739561  0.81802666     0.07800
H197        H  0.27404215  0.57505083  0.84367116     0.09000
Cu198      Cu  0.17320011  0.44601671  0.85381588     0.44200
Cu199      Cu  0.25880017  0.50332471  0.87534616     0.42000
Cu200      Cu  0.20285872  0.41808051  0.89876174     0.43900
N201        N  0.14482445  0.39665263  0.86817231    -0.34600
N202        N  0.15427316  0.38752344  0.88468260    -0.28900
C203        C  0.12852899  0.35523753  0.89022337    -0.05000
C204        C  0.10208766  0.34324213  0.87648040     0.07200
C205        C  0.11335769  0.37003073  0.86271107     0.01000
H206        H  0.12934070  0.34125381  0.90323495     0.08700
H207        H  0.09917058  0.37070416  0.84974867     0.07800
N208        N  0.25553756  0.45125758  0.90890884    -0.36100
N209        N  0.27578651  0.48232412  0.90028026    -0.28200
C210        C  0.30892923  0.49658753  0.91004291    -0.03500
C211        C  0.30935667  0.47378815  0.92563641     0.05100
C212        C  0.27545259  0.44487216  0.92439658     0.03200
H213        H  0.33170107  0.52099279  0.90588597     0.08300
H214        H  0.26622732  0.42071634  0.93395834     0.07200
O215        O  0.69035788  0.29879552  0.26394105    -0.72900
O216        O  0.71343453  0.20872624  0.22726679    -0.73900
O217        O  0.68920851  0.20662724  0.26330617    -0.62500
O218        O  0.71468531  0.30092915  0.22808574    -0.70900
O219        O  0.78380481  0.29898394  0.23550845    -0.70500
O220        O  0.75842249  0.20605209  0.27037134    -0.61700
O221        O  0.78270788  0.20771199  0.23458614    -0.74200
O222        O  0.75970341  0.29713538  0.27103441    -0.73000
Cu223      Cu  0.69941383  0.25377304  0.24536577     1.04600
Cu224      Cu  0.77343136  0.25235823  0.25314317     1.04300
C225        C  0.72177532  0.31251072  0.27319638     0.93300
C226        C  0.75160580  0.19385796  0.22519155     0.92400
C227        C  0.72033637  0.19123940  0.27241864     0.84600
C228        C  0.75322623  0.31517802  0.22639574     0.90900
O229        O  0.46188125  0.95607627  0.01569518    -0.72900
O230        O  0.54896258  0.97353353  0.97725438    -0.73900
O231        O  0.55317967  0.96124593  0.01412248    -0.62500
O232        O  0.45680763  0.96779821  0.97892854    -0.70900
O233        O  0.45392178  0.03889586  0.98211581    -0.70500
O234        O  0.54887042  0.03181975  0.01823440    -0.61700
O235        O  0.54600577  0.04413723  0.98130974    -0.74200
O236        O  0.45689493  0.02703717  0.01903609    -0.73000
Cu237      Cu  0.50537769  0.96225127  0.99632905     1.04600
Cu238      Cu  0.50132093  0.03796291  0.00028315     1.04300
C239        C  0.44564649  0.98882157  0.02342003     0.93300
C240        C  0.56198706  0.01149111  0.97337908     0.92400
C241        C  0.56621907  0.99539831  0.02184512     0.84600
C242        C  0.43990997  0.00425588  0.97505556     0.90900
N243        N  0.21670547  0.96306071  0.85502530    -0.27200
N244        N  0.19045506  0.98809259  0.84586294    -0.35100
C245        C  0.18736957  0.97241701  0.82946752     0.01100
C246        C  0.21360320  0.93630890  0.82821481     0.07100
C247        C  0.23114607  0.93098964  0.84473153    -0.06000
H248        H  0.16749972  0.98622358  0.81922224     0.07800
H249        H  0.25200447  0.90511409  0.84912745     0.09000
Cu250      Cu  0.16067385  0.04244837  0.85628012     0.44200
Cu251      Cu  0.23284886  0.97398863  0.88096514     0.42000
Cu252      Cu  0.18879774  0.06910330  0.90155302     0.43900
N253        N  0.13542353  0.09486491  0.86983276    -0.34600
N254        N  0.14445873  0.10384085  0.88638351    -0.28900
C255        C  0.12130394  0.13866147  0.89126613    -0.05000
C256        C  0.09704077  0.15251305  0.87707591     0.07200
C257        C  0.10685443  0.12404163  0.86372131     0.01000
H258        H  0.12213419  0.15292213  0.90420280     0.08700
H259        H  0.09342176  0.12387451  0.85062693     0.07800
N260        N  0.23699536  0.03083799  0.91289881    -0.36100
N261        N  0.25220031  0.99548064  0.90540036    -0.28200
C262        C  0.28515950  0.97990510  0.91499926    -0.03500
C263        C  0.29099096  0.00651567  0.92929628     0.05100
C264        C  0.26022936  0.03875933  0.92747635     0.03200
H265        H  0.30521420  0.95281959  0.91123986     0.08300
H266        H  0.25652433  0.06703388  0.93563465     0.07200
N267        N  0.78102179  0.98092471  0.84941554    -0.27200
N268        N  0.81501534  0.99940381  0.84207110    -0.35100
C269        C  0.82570786  0.97738735  0.82748583     0.01100
C270        C  0.79699842  0.94351050  0.82568189     0.07100
C271        C  0.76898127  0.94686948  0.83970183    -0.06000
H272        H  0.85206020  0.98567001  0.81878312     0.07800
H273        H  0.74186590  0.92615572  0.84261237     0.09000
Cu274      Cu  0.84429196  0.05393178  0.85243738     0.44200
Cu275      Cu  0.75230389  0.00282267  0.87226454     0.42000
Cu276      Cu  0.80074362  0.09373306  0.89413917     0.43900
N277        N  0.86921589  0.10591891  0.86624860    -0.34600
N278        N  0.85467958  0.11917481  0.88164959    -0.28900
C279        C  0.87975453  0.15169494  0.88734907    -0.05000
C280        C  0.91107776  0.15956383  0.87483689     0.07200
C281        C  0.90336031  0.13019459  0.86161608     0.01000
H282        H  0.87511719  0.16872786  0.89958406     0.08700
H283        H  0.92177585  0.12612148  0.84965900     0.07800
N284        N  0.74533054  0.06306698  0.90312885    -0.36100
N285        N  0.72787397  0.02965080  0.89506382    -0.28200
C286        C  0.69332737  0.01616292  0.90422945    -0.03500
C287        C  0.68835153  0.04268594  0.91863276     0.05100
C288        C  0.72220186  0.07179370  0.91765724     0.03200
H289        H  0.67366175  0.98861132  0.90082176     0.08300
H290        H  0.73047172  0.09639152  0.92711338     0.07200
O291        O  0.31129877  0.20824769  0.26322641    -0.72900
O292        O  0.28388722  0.30242241  0.22846752    -0.73900
O293        O  0.30938326  0.30025021  0.26424835    -0.62500
O294        O  0.28576193  0.21025118  0.22745297    -0.70900
O295        O  0.21671464  0.20860104  0.23530555    -0.70500
O296        O  0.24042023  0.29839558  0.27176057    -0.61700
O297        O  0.21499505  0.30029567  0.23620380    -0.74200
O298        O  0.24223975  0.20754871  0.27101632    -0.73000
Cu299      Cu  0.30002362  0.25536716  0.24552569     1.04600
Cu300      Cu  0.22626477  0.25362840  0.25382130     1.04300
C301        C  0.28074631  0.19329228  0.27271491     0.93300
C302        C  0.24514776  0.31630783  0.22683794     0.92400
C303        C  0.27845067  0.31347502  0.27394380     0.84600
C304        C  0.24774574  0.19467418  0.22582549     0.90900
N305        N  0.23944175  0.02235206  0.14953943    -0.27200
N306        N  0.20329540  0.00822966  0.15673648    -0.35100
C307        C  0.19365324  0.03352213  0.17055096     0.01100
C308        C  0.22504923  0.06537094  0.17193028     0.07100
C309        C  0.25397756  0.05651050  0.15857153    -0.06000
H310        H  0.16544620  0.02958015  0.17877602     0.07800
H311        H  0.28336096  0.07366892  0.15547507     0.09000
Cu312      Cu  0.16904583  0.95594390  0.14659117     0.44200
Cu313      Cu  0.26518750  0.99786003  0.12670406     0.42000
Cu314      Cu  0.20412656  0.91858301  0.10297644     0.43900
N315        N  0.14090242  0.90480246  0.13296592    -0.34600
N316        N  0.15256807  0.89250107  0.11702938    -0.28900
C317        C  0.12693103  0.85982097  0.11189884    -0.05000
C318        C  0.09816268  0.85069514  0.12527667     0.07200
C319        C  0.10800570  0.87970190  0.13844745     0.01000
H320        H  0.12956079  0.84338376  0.09943359     0.08700
H321        H  0.09205101  0.88273793  0.15101971     0.07800
N322        N  0.25943793  0.94802046  0.09298608    -0.36100
N323        N  0.28193269  0.97653137  0.10204450    -0.28200
C324        C  0.31591256  0.98968411  0.09249200    -0.03500
C325        C  0.31469976  0.96871240  0.07660028     0.05100
C326        C  0.27869086  0.94228045  0.07730478     0.03200
H327        H  0.33963881  0.01298315  0.09677768     0.08300
H328        H  0.26752561  0.92039274  0.06725584     0.07200
N329        N  0.77865989  0.03235065  0.14677569    -0.27200
N330        N  0.81239968  0.01519104  0.15480713    -0.35100
C331        C  0.81944799  0.03709209  0.16978842     0.01100
C332        C  0.78861067  0.06942636  0.17104960     0.07100
C333        C  0.76316604  0.06519746  0.15635588    -0.06000
H334        H  0.84461703  0.02966146  0.17915309     0.07800
H335        H  0.73534845  0.08458444  0.15287229     0.09000
Cu336      Cu  0.84555516  0.96212634  0.14464696     0.44200
Cu337      Cu  0.75496316  0.01116215  0.12310073     0.42000
Cu338      Cu  0.81222795  0.92786734  0.10026824     0.43900
N339        N  0.87216246  0.91004039  0.13104751    -0.34600
N340        N  0.86161843  0.89901137  0.11483856    -0.28900
C341        C  0.88575621  0.86481918  0.11000400    -0.05000
C342        C  0.91212801  0.85328993  0.12388659     0.07200
C343        C  0.90265041  0.88261746  0.13699214     0.01000
H344        H  0.88357983  0.84891171  0.09741530     0.08700
H345        H  0.91723667  0.88425101  0.14986363     0.07800
N346        N  0.75649475  0.95728656  0.09042775    -0.36100
N347        N  0.73570606  0.98784051  0.09908718    -0.28200
C348        C  0.70071936  0.00008348  0.08993398    -0.03500
C349        C  0.69893264  0.97575811  0.07484076     0.05100
C350        C  0.73493796  0.94910156  0.07545209     0.03200
H351        H  0.67800763  0.02459101  0.09405809     0.08300
H352        H  0.74474011  0.92561566  0.06575499     0.07200
N353        N  0.74338790  0.51508630  0.10010976    -0.27200
N354        N  0.75691477  0.55148774  0.09289135    -0.35100
C355        C  0.73221740  0.55993230  0.07873166     0.01100
C356        C  0.70230306  0.52691953  0.07699729     0.07100
C357        C  0.71015298  0.49930267  0.09082883    -0.06000
H358        H  0.73562293  0.58799618  0.07037297     0.07800
H359        H  0.69243374  0.47033464  0.09414546     0.09000
Cu360      Cu  0.80796759  0.58735863  0.10342021     0.44200
Cu361      Cu  0.76792889  0.49004561  0.12302124     0.42000
Cu362      Cu  0.84619266  0.55201879  0.14693487     0.43900
N363        N  0.85815708  0.61690003  0.11735151    -0.34600
N364        N  0.87071678  0.60510860  0.13325756    -0.28900
C365        C  0.90243178  0.63174238  0.13861402    -0.05000
C366        C  0.91073466  0.66132653  0.12541368     0.07200
C367        C  0.88222472  0.65083031  0.11211200     0.01000
H368        H  0.91893069  0.62913721  0.15107671     0.08700
H369        H  0.87890303  0.66698666  0.09958678     0.07800
N370        N  0.81706586  0.49635149  0.15687309    -0.36100
N371        N  0.78865765  0.47382344  0.14777623    -0.28200
C372        C  0.77424065  0.44075437  0.15754130    -0.03500
C373        C  0.79477649  0.44212942  0.17353175     0.05100
C374        C  0.82164571  0.47784483  0.17278190     0.03200
H375        H  0.75015246  0.41772192  0.15337590     0.08300
H376        H  0.84226746  0.48990990  0.18309632     0.07200
N377        N  0.26460630  0.51733746  0.09919666    -0.27200
N378        N  0.24983514  0.55361232  0.09227566    -0.35100
C379        C  0.27334275  0.56309270  0.07790348     0.01100
C380        C  0.30459053  0.53139943  0.07586661     0.07100
C381        C  0.29768513  0.50268430  0.08945866    -0.06000
H382        H  0.26811118  0.59103582  0.06964345     0.07800
H383        H  0.31636952  0.47407009  0.09241791     0.09000
Cu384      Cu  0.20001718  0.58922311  0.10362778     0.44200
Cu385      Cu  0.24275029  0.49218352  0.12267531     0.42000
Cu386      Cu  0.16947797  0.55852998  0.14819558     0.43900
N387        N  0.15199667  0.61993591  0.11817865    -0.34600
N388        N  0.14195696  0.60985684  0.13455251    -0.28900
C389        C  0.11000608  0.63609754  0.14007171    -0.05000
C390        C  0.09902098  0.66354676  0.12645114     0.07200
C391        C  0.12625056  0.65239212  0.11279786     0.01000
H392        H  0.09499655  0.63441088  0.15288010     0.08700
H393        H  0.12723891  0.66677927  0.09985694     0.07800
N394        N  0.19874897  0.50273651  0.15770695    -0.36100
N395        N  0.22493406  0.47846415  0.14818514    -0.28200
C396        C  0.23875585  0.44503764  0.15792353    -0.03500
C397        C  0.22064410  0.44852965  0.17437556     0.05100
C398        C  0.19505137  0.48512510  0.17379846     0.03200
H399        H  0.26039532  0.42000277  0.15334632     0.08300
H400        H  0.17533449  0.49800789  0.18426941     0.07200
N401        N  0.22064722  0.97492258  0.39345729    -0.27200
N402        N  0.24369886  0.95045554  0.40415534    -0.35100
C403        C  0.22369683  0.94861855  0.41980236     0.01100
C404        C  0.18672750  0.97374513  0.41895386     0.07100
C405        C  0.18550180  0.98937299  0.40197911    -0.06000
H406        H  0.23500882  0.93010229  0.43093912     0.07800
H407        H  0.16046904  0.00880937  0.39604697     0.09000
Cu408      Cu  0.30046083  0.91996115  0.39659484     0.44200
Cu409      Cu  0.23877801  0.98969189  0.36805215     0.42000
Cu410      Cu  0.34273850  0.95378829  0.35390079     0.43900
N411        N  0.35224826  0.89074504  0.38401212    -0.34600
N412        N  0.36620256  0.90205092  0.36825514    -0.28900
C413        C  0.39776820  0.87488585  0.36331611    -0.05000
C414        C  0.40445649  0.84556376  0.37668589     0.07200
C415        C  0.37525595  0.85653718  0.38964504     0.01000
H416        H  0.41496643  0.87673867  0.35096951     0.08700
H417        H  0.37041069  0.84031124  0.40208019     0.07800
N418        N  0.30961814  0.00346845  0.34166826    -0.36100
N419        N  0.26996272  0.01429068  0.34625493    -0.28200
C420        C  0.25661972  0.04732586  0.33622346    -0.03500
C421        C  0.29009518  0.05915226  0.32514943     0.05100
C422        C  0.32295431  0.02997212  0.32874484     0.03200
H423        H  0.22507859  0.06155237  0.33718581     0.08300
H424        H  0.35467675  0.02892131  0.32278284     0.07200
N425        N  0.76138683  0.98486940  0.39812608    -0.27200
N426        N  0.74576677  0.94971750  0.40567502    -0.35100
C427        C  0.76991227  0.94006921  0.41980961     0.01100
C428        C  0.80247187  0.97042683  0.42112124     0.07100
C429        C  0.79578660  0.99861885  0.40729990    -0.06000
H430        H  0.76361384  0.91344264  0.42864235     0.07800
H431        H  0.81464313  0.02695907  0.40411949     0.09000
Cu432      Cu  0.69241482  0.91647797  0.39634297     0.44200
Cu433      Cu  0.73553916  0.01217463  0.37556677     0.42000
Cu434      Cu  0.64930229  0.95352371  0.35451923     0.43900
N435        N  0.64151715  0.88695539  0.38339700    -0.34600
N436        N  0.62724961  0.89927196  0.36782521    -0.28900
C437        C  0.59535559  0.87258897  0.36281491    -0.05000
C438        C  0.58885630  0.84249906  0.37595704     0.07200
C439        C  0.61849169  0.85260826  0.38884122     0.01000
H440        H  0.57734495  0.87569168  0.35072146     0.08700
H441        H  0.62318797  0.83607937  0.40121520     0.07800
N442        N  0.67449668  0.01081204  0.34470926    -0.36100
N443        N  0.70600803  0.03216918  0.35250388    -0.28200
C444        C  0.71649514  0.06662910  0.34265652    -0.03500
C445        C  0.69000472  0.06740605  0.32806900     0.05100
C446        C  0.66400838  0.03127185  0.32969747     0.03200
H447        H  0.74243281  0.08879480  0.34560598     0.08300
H448        H  0.64073583  0.01948431  0.32030354     0.07200
N449        N  0.76401651  0.51793665  0.39977290    -0.27200
N450        N  0.74323545  0.54889106  0.40820024    -0.35100
C451        C  0.76357780  0.55684068  0.42342085     0.01100
C452        C  0.79889103  0.52966133  0.42451276     0.07100
C453        C  0.79807178  0.50519762  0.40941090    -0.06000
H454        H  0.75360629  0.58082463  0.43287874     0.07800
H455        H  0.82094276  0.48055994  0.40556965     0.09000
Cu456      Cu  0.68923809  0.57974599  0.39819047     0.44200
Cu457      Cu  0.74581113  0.49565106  0.37533213     0.42000
Cu458      Cu  0.65477208  0.54836401  0.35443276     0.43900
N459        N  0.63874662  0.60861934  0.38477088    -0.34600
N460        N  0.62711078  0.59813918  0.36865746    -0.28900
C461        C  0.59513235  0.62460006  0.36344914    -0.05000
C462        C  0.58600672  0.65269635  0.37699831     0.07200
C463        C  0.61406801  0.64161691  0.39033056     0.01000
H464        H  0.57953731  0.62329281  0.35076742     0.08700
H465        H  0.61703630  0.65700327  0.40300026     0.07800
N466        N  0.68825548  0.49721208  0.34343945    -0.36100
N467        N  0.72164628  0.47834251  0.35108025    -0.28200
C468        C  0.73584515  0.44608206  0.34085040    -0.03500
C469        C  0.71049928  0.44490694  0.32598192     0.05100
C470        C  0.68024159  0.47731381  0.32813083     0.03200
H471        H  0.76185194  0.42433024  0.34426575     0.08300
H472        H  0.65417987  0.48559791  0.31929986     0.07200
N473        N  0.23307772  0.51028666  0.40262094    -0.27200
N474        N  0.24197731  0.54981652  0.40798163    -0.35100
C475        C  0.21291259  0.56126001  0.42023460     0.01100
C476        C  0.18418800  0.52736006  0.42272176     0.07100
C477        C  0.19873036  0.49535076  0.41150757    -0.06000
H478        H  0.21265415  0.59215950  0.42682001     0.07800
H479        H  0.18607285  0.46308424  0.40996633     0.09000
Cu480      Cu  0.29345552  0.58616661  0.39852585     0.44200
Cu481      Cu  0.26377194  0.47987846  0.38195714     0.42000
Cu482      Cu  0.33697331  0.54669850  0.35762072     0.43900
N483        N  0.34558860  0.61443524  0.38569606    -0.34600
N484        N  0.35998597  0.60077635  0.37035295    -0.28900
C485        C  0.39286650  0.62597918  0.36514284    -0.05000
C486        C  0.40002179  0.65657651  0.37792035     0.07200
C487        C  0.36964764  0.64833322  0.39082510     0.01000
H488        H  0.41100766  0.62156298  0.35313449     0.08700
H489        H  0.36511866  0.66586499  0.40295149     0.07800
N490        N  0.31235908  0.48941275  0.34807931    -0.36100
N491        N  0.28627397  0.46423458  0.35723503    -0.28200
C492        C  0.27464410  0.43043512  0.34729887    -0.03500
C493        C  0.29399308  0.43493742  0.33106238     0.05100
C494        C  0.31817169  0.47229315  0.33207069     0.03200
H495        H  0.25327178  0.40485672  0.35152943     0.08300
H496        H  0.33769912  0.48650919  0.32180760     0.07200
O497        O  0.95770328  0.71069087  0.13993174    -0.72900
O498        O  0.04906555  0.80365090  0.13995093    -0.73900
O499        O  0.95758455  0.80377600  0.13922223    -0.62500
O500        O  0.04951909  0.71120938  0.14059281    -0.70900
O501        O  0.05066262  0.71048958  0.11150373    -0.70500
O502        O  0.95865595  0.80232798  0.11014116    -0.61700
O503        O  0.05084327  0.80182515  0.11087581    -0.74200
O504        O  0.95815270  0.71038014  0.11084774    -0.73000
Cu505      Cu  0.00332939  0.75733226  0.14095039     1.04600
Cu506      Cu  0.00455857  0.75617605  0.10984572     1.04300
C507        C  0.94364483  0.69581255  0.12539661     0.93300
C508        C  0.06443352  0.81718880  0.12538841     0.92400
C509        C  0.94413474  0.81802708  0.12445519     0.86600
C510        C  0.06478634  0.69659534  0.12620193     0.90900
O511        O  0.44833504  0.70333881  0.36306532    -0.72900
O512        O  0.54086837  0.79386614  0.36199225    -0.73900
O513        O  0.53926340  0.70171435  0.36252182    -0.62500
O514        O  0.45007683  0.79533304  0.36243894    -0.70900
O515        O  0.45023328  0.79606889  0.39155648    -0.70500
O516        O  0.54030526  0.70261283  0.39163085    -0.61700
O517        O  0.54233106  0.79411288  0.39109699    -0.74200
O518        O  0.44813265  0.70481356  0.39217170    -0.73000
Cu519      Cu  0.49461331  0.74850182  0.36149559     1.04600
Cu520      Cu  0.49530884  0.74941131  0.39264771     1.04300
C521        C  0.43361566  0.68991281  0.37774323     0.93300
C522        C  0.55597594  0.80841876  0.37637960     0.92400
C523        C  0.55372141  0.68732016  0.37706898     0.84600
C524        C  0.43626916  0.81056345  0.37693474     0.90900
O525        O  0.45286760  0.20164456  0.60930225    -0.72900
O526        O  0.54147565  0.29619908  0.61146859    -0.73900
O527        O  0.54542319  0.20470389  0.61042399    -0.62500
O528        O  0.44905822  0.29303617  0.61052563    -0.70900
O529        O  0.44846854  0.29190428  0.63961201    -0.70500
O530        O  0.54268873  0.20189864  0.63946968    -0.61700
O531        O  0.54021792  0.29433797  0.64054842    -0.74200
O532        O  0.45089422  0.19947800  0.63837360    -0.73000
Cu533      Cu  0.49728196  0.24898721  0.60942723     1.04600
Cu534      Cu  0.49548574  0.24680219  0.64051891     1.04300
C535        C  0.43777433  0.18576960  0.62350207     0.93300
C536        C  0.55493321  0.31009381  0.62623766     0.92400
C537        C  0.55907331  0.18929145  0.62497166     0.84600
C538        C  0.43380091  0.30649824  0.62510689     0.90900
O539        O  0.05430139  0.29579554  0.86181537    -0.72900
O540        O  0.96134015  0.20605256  0.86099546    -0.73900
O541        O  0.96272985  0.29816417  0.86131880    -0.62500
O542        O  0.05257790  0.20331836  0.86189580    -0.70900
O543        O  0.05113695  0.20358770  0.89098458    -0.70500
O544        O  0.96119881  0.29716385  0.89041041    -0.61700
O545        O  0.95897362  0.20614212  0.89009355    -0.74200
O546        O  0.05355157  0.29528542  0.89091803    -0.73000
Cu547      Cu  0.00786349  0.25089229  0.86048149     1.04600
Cu548      Cu  0.00625804  0.25056719  0.89160991     1.04300
C549        C  0.06851188  0.30978665  0.87643501     0.93300
C550        C  0.94537192  0.19212609  0.87536015     0.92400
C551        C  0.94746479  0.31210491  0.87583644     0.84600
C552        C  0.06562135  0.18828193  0.87660370     0.90900
C553        C  0.19266024  0.38775312  0.19186770    -0.05700
C554        C  0.22572149  0.41766984  0.18893869     0.00200
C555        C  0.26371849  0.41607959  0.19912986    -0.08400
C556        C  0.26821499  0.38293610  0.21160393    -0.05700
C557        C  0.23587056  0.35171246  0.21420453     0.00200
C558        C  0.19691061  0.35450281  0.20436990    -0.08300
C559        C  0.16057996  0.32191147  0.20642456     0.62100
H560        H  0.16382087  0.39012675  0.18391040     0.12800
H561        H  0.29740395  0.38096984  0.21936425     0.12800
C562        C  0.29918630  0.44940747  0.19680899     0.62300
F563        F  0.12812121  0.32833919  0.19421734    -0.22800
F564        F  0.14229264  0.32562882  0.22289356    -0.20200
F565        F  0.17647117  0.28052141  0.20417025    -0.19800
F566        F  0.28217156  0.49041899  0.19883377    -0.19900
F567        F  0.31700861  0.44582912  0.18025995    -0.20200
F568        F  0.33193451  0.44414308  0.20897365    -0.22900
C569        C  0.24887370  0.17196479  0.19503369    -0.05700
C570        C  0.23965297  0.16114478  0.21249235     0.00200
C571        C  0.22291920  0.11949897  0.21641873    -0.08400
C572        C  0.21751352  0.08990270  0.20264198    -0.05700
C573        C  0.22783881  0.10030639  0.18522518     0.00200
C574        C  0.24169992  0.14292869  0.18119889    -0.08300
C575        C  0.24770398  0.15941400  0.16257866     0.62100
H576        H  0.26094383  0.20410200  0.19216792     0.12800
H577        H  0.20620081  0.05758166  0.20566573     0.12800
C578        C  0.21135205  0.10332817  0.23465806     0.62300
F579        F  0.23885147  0.20319774  0.16161710    -0.22800
F580        F  0.22000413  0.13907976  0.15103878    -0.20200
F581        F  0.28996846  0.15288855  0.15735768    -0.19800
F582        F  0.22030102  0.13226388  0.24785190    -0.19900
F583        F  0.16768599  0.09406914  0.23520751    -0.20200
F584        F  0.23421659  0.06585803  0.23813275    -0.22900
C585        C  0.32690837  0.38345541  0.31037831    -0.05700
C586        C  0.29004236  0.40591697  0.31586441     0.00200
C587        C  0.25069110  0.40065877  0.30677251    -0.08400
C588        C  0.24906838  0.37092648  0.29294327    -0.05700
C589        C  0.28539099  0.34665763  0.28778847     0.00200
C590        C  0.32551259  0.35366718  0.29645628    -0.08300
C591        C  0.36651099  0.32951505  0.29154262     0.62100
H592        H  0.35679205  0.38899741  0.31738835     0.12800
H593        H  0.21890306  0.36631281  0.28603896     0.12800
C594        C  0.21089547  0.42719162  0.31129240     0.62300
F595        F  0.40054552  0.33946507  0.30258207    -0.22800
F596        F  0.37877882  0.34051204  0.27468262    -0.20200
F597        F  0.35956906  0.28547822  0.29261697    -0.19800
F598        F  0.22090358  0.47067950  0.31062754    -0.19900
F599        F  0.19651357  0.41679885  0.32791179    -0.20200
F600        F  0.17730011  0.41981410  0.29971895    -0.22900
C601        C  0.27178090  0.16792524  0.30294805    -0.05700
C602        C  0.28911566  0.16023350  0.28628532     0.00200
C603        C  0.31090064  0.12086723  0.28293524    -0.08400
C604        C  0.31059618  0.08866885  0.29603479    -0.05700
C605        C  0.29117129  0.09561131  0.31246988     0.00200
C606        C  0.27400986  0.13704782  0.31639227    -0.08300
C607        C  0.25939536  0.15014100  0.33465436     0.62100
H608        H  0.25635938  0.19874055  0.30542377     0.12800
H609        H  0.32511903  0.05754014  0.29345167     0.12800
C610        C  0.33396791  0.11269649  0.26568469     0.62300
F611        F  0.26027896  0.19456676  0.33663409    -0.22800
F612        F  0.28647174  0.13276876  0.34725450    -0.20200
F613        F  0.21752278  0.13654930  0.33753956    -0.19800
F614        F  0.30581593  0.11806988  0.25182658    -0.19900
F615        F  0.36783665  0.14143110  0.26389839    -0.20200
F616        F  0.35069870  0.07128055  0.26480529    -0.22900
C617        C  0.60231520  0.95387726  0.04548089    -0.05700
C618        C  0.60091943  0.99184176  0.03530660     0.00200
C619        C  0.63272649  0.02422581  0.03807082    -0.08400
C620        C  0.66464938  0.01717883  0.05092469    -0.05700
C621        C  0.66580995  0.97926665  0.06096566     0.00200
C622        C  0.63391567  0.94728281  0.05846829    -0.08300
C623        C  0.63240304  0.90718073  0.06993449     0.62100
H624        H  0.57778877  0.92957116  0.04340586     0.12800
H625        H  0.68897553  0.04148891  0.05338250     0.12800
C626        C  0.63376180  0.06575741  0.02744623     0.62300
F627        F  0.59726218  0.88132043  0.06605083    -0.22800
F628        F  0.62938648  0.91907372  0.08735913    -0.20200
F629        F  0.66946516  0.88300863  0.06750494    -0.19800
F630        F  0.59850354  0.09109618  0.03171789    -0.19900
F631        F  0.63300581  0.05637983  0.00973117    -0.20200
F632        F  0.67066510  0.08962668  0.03071877    -0.22900
C633        C  0.38626975  0.95120412  0.06439119    -0.05700
C634        C  0.34680412  0.97283512  0.06243097     0.00200
C635        C  0.34019282  0.00059856  0.04795448    -0.08400
C636        C  0.37342316  0.00501271  0.03548880    -0.05700
C637        C  0.41267903  0.98265760  0.03721433     0.00200
C638        C  0.41971070  0.95581705  0.05202558    -0.08300
C639        C  0.46295401  0.93397321  0.05524273     0.62100
H640        H  0.39080279  0.93105129  0.07585520     0.12800
H641        H  0.36891152  0.02576552  0.02419658     0.12800
C642        C  0.29841666  0.02576822  0.04591494     0.62300
F643        F  0.46422680  0.91342191  0.07137066    -0.22800
F644        F  0.49553002  0.96450113  0.05491130    -0.20200
F645        F  0.47069105  0.90334917  0.04247809    -0.19800
F646        F  0.29187060  0.05152662  0.06046530    -0.19900
F647        F  0.26422613  0.99738644  0.04430049    -0.20200
F648        F  0.29903435  0.05216984  0.03124860    -0.22900
C649        C  0.59459799  0.05785000  0.95033936    -0.05700
C650        C  0.59534147  0.01836194  0.95952875     0.00200
C651        C  0.62823572  0.98771314  0.95556763    -0.08400
C652        C  0.65804564  0.99738809  0.94218400    -0.05700
C653        C  0.65691289  0.03662221  0.93303612     0.00200
C654        C  0.62490610  0.06760463  0.93714421    -0.08300
C655        C  0.62191542  0.11014254  0.92727631     0.62100
H656        H  0.56959161  0.08107032  0.95345248     0.12800
H657        H  0.68285104  0.97423145  0.93870842     0.12800
C658        C  0.63310230  0.94549231  0.96558088     0.62300
F659        F  0.58640810  0.13420700  0.93243396    -0.22800
F660        F  0.61835120  0.10237971  0.90949372    -0.20200
F661        F  0.65844745  0.13451923  0.93037062    -0.19800
F662        F  0.59867827  0.91858992  0.96193943    -0.19900
F663        F  0.63477894  0.95360516  0.98339094    -0.20200
F664        F  0.67059976  0.92378525  0.96103281    -0.22900
C665        C  0.36707169  0.97893937  0.96679396    -0.05700
C666        C  0.40246012  0.00573413  0.96296812     0.00200
C667        C  0.40121665  0.03255992  0.94789138    -0.08400
C668        C  0.36386733  0.03228447  0.93733961    -0.05700
C669        C  0.32836328  0.00596573  0.94135216     0.00200
C670        C  0.32979673  0.97872876  0.95623002    -0.08300
C671        C  0.29173746  0.95021309  0.96100520     0.62100
H672        H  0.36864966  0.95856641  0.97832759     0.12800
H673        H  0.36213892  0.05243181  0.92574875     0.12800
C674        C  0.43962093  0.06011665  0.94261276     0.62300
F675        F  0.29934823  0.92660350  0.97612685    -0.22800
F676        F  0.28361114  0.92153308  0.94755202    -0.20200
F677        F  0.25554679  0.97557245  0.96371323    -0.19800
F678        F  0.47631735  0.03470046  0.94156876    -0.19900
F679        F  0.44599946  0.09227775  0.95485470    -0.20200
F680        F  0.43348153  0.07959086  0.92644883    -0.22900
C681        C  0.80377581  0.34806439  0.20511207    -0.05700
C682        C  0.76345551  0.34993597  0.21360589     0.00200
C683        C  0.73519062  0.38503185  0.20999875    -0.08400
C684        C  0.74736879  0.41540754  0.19715787    -0.05700
C685        C  0.78692669  0.41238952  0.18830538     0.00200
C686        C  0.81601967  0.37877816  0.19246369    -0.08300
C687        C  0.85912936  0.37472389  0.18312449     0.62100
H688        H  0.82535832  0.32151407  0.20814062     0.12800
H689        H  0.72562798  0.44149986  0.19365139     0.12800
C690        C  0.69274786  0.39106640  0.21970454     0.62300
F691        F  0.88265361  0.33957247  0.18905455    -0.22800
F692        F  0.88343651  0.41145710  0.18595633    -0.20200
F693        F  0.85239940  0.36978303  0.16532596    -0.19800
F694        F  0.69929336  0.38742002  0.23758582    -0.19900
F695        F  0.66342099  0.36021241  0.21432379    -0.20200
F696        F  0.67490379  0.43135408  0.21652204    -0.22900
C697        C  0.79638787  0.16735527  0.20066630    -0.05700
C698        C  0.76047086  0.16096425  0.21163390     0.00200
C699        C  0.73489219  0.12332654  0.20967301    -0.08400
C700        C  0.74596088  0.09360753  0.19648659    -0.05700
C701        C  0.78148608  0.10037552  0.18542423     0.00200
C702        C  0.80704168  0.13783881  0.18735924    -0.08300
C703        C  0.84436312  0.14714663  0.17501354     0.62100
H704        H  0.81553048  0.19631278  0.20236801     0.12800
H705        H  0.72661945  0.06487323  0.19454826     0.12800
C706        C  0.69683778  0.11393281  0.22167452     0.62300
F707        F  0.86416846  0.18609926  0.17876657    -0.22800
F708        F  0.82940686  0.14896733  0.15795002    -0.20200
F709        F  0.87500394  0.11482230  0.17638331    -0.19800
F710        F  0.66433080  0.14374184  0.21879234    -0.19900
F711        F  0.70988248  0.11599109  0.23898588    -0.20200
F712        F  0.67987295  0.07323199  0.21879484    -0.22900
C713        C  0.74977249  0.37704858  0.28794490    -0.05700
C714        C  0.71563722  0.34756226  0.28612684     0.00200
C715        C  0.67848281  0.35169635  0.29692874    -0.08400
C716        C  0.67777185  0.38466210  0.30961029    -0.05700
C717        C  0.71268851  0.41296044  0.31173796     0.00200
C718        C  0.74888280  0.40998039  0.30050516    -0.08300
C719        C  0.78587245  0.44208697  0.30141477     0.62100
H720        H  0.77750589  0.37402142  0.27937296     0.12800
H721        H  0.65020382  0.38819232  0.31823891     0.12800
C722        C  0.64039063  0.32102235  0.29554147     0.62300
F723        F  0.81531129  0.43611555  0.28795556    -0.22800
F724        F  0.80770255  0.43748332  0.31708256    -0.20200
F725        F  0.76985706  0.48368048  0.30011688    -0.19800
F726        F  0.65448259  0.27876772  0.29706197    -0.19900
F727        F  0.62008593  0.32667927  0.27956802    -0.20200
F728        F  0.61010690  0.32823400  0.30858376    -0.22900
C729        C  0.73497900  0.09711044  0.30439492    -0.05700
C730        C  0.69478125  0.09650235  0.31277959     0.00200
C731        C  0.66196491  0.12533368  0.30729297    -0.08400
C732        C  0.67127197  0.15506773  0.29377278    -0.05700
C733        C  0.71220295  0.15680343  0.28571207     0.00200
C734        C  0.74436453  0.12634393  0.29080798    -0.08300
C735        C  0.78846136  0.12393269  0.28204461     0.62100
H736        H  0.75946314  0.07460833  0.30885020     0.12800
H737        H  0.64681342  0.17799315  0.28970124     0.12800
C738        C  0.61790788  0.12556602  0.31605218     0.62300
F739        F  0.81300450  0.15934257  0.28672060    -0.22800
F740        F  0.78371753  0.12272142  0.26402458    -0.20200
F741        F  0.81104311  0.08727705  0.28700175    -0.19800
F742        F  0.62254231  0.13025498  0.33397672    -0.19900
F743        F  0.59686376  0.08718982  0.31261655    -0.20200
F744        F  0.59221037  0.15905276  0.31001956    -0.22900
C745        C  0.33890307  0.49156869  0.05162307    -0.05700
C746        C  0.33891614  0.52809992  0.06241857     0.00200
C747        C  0.37316159  0.55823547  0.06115238    -0.08400
C748        C  0.40627464  0.55076287  0.04885660    -0.05700
C749        C  0.40669466  0.51384553  0.03819236     0.00200
C750        C  0.37208010  0.48387755  0.03939172    -0.08300
C751        C  0.36943446  0.44434770  0.02767331     0.62100
H752        H  0.31262333  0.46872381  0.05300772     0.12800
H753        H  0.43272794  0.57345964  0.04769905     0.12800
C754        C  0.37575668  0.59707082  0.07321193     0.62300
F755        F  0.32994623  0.42371770  0.02916610    -0.22800
F756        F  0.40125645  0.41511876  0.03230032    -0.20200
F757        F  0.37464822  0.45630222  0.01031462    -0.19800
F758        F  0.37400440  0.58360546  0.09049720    -0.19900
F759        F  0.34175799  0.62481355  0.06989047    -0.20200
F760        F  0.41376363  0.61989992  0.07087680    -0.22900
C761        C  0.63090717  0.54887088  0.06541587    -0.05700
C762        C  0.66769399  0.52272279  0.06379237     0.00200
C763        C  0.67030211  0.49229277  0.05003865    -0.08400
C764        C  0.63606255  0.48976116  0.03798779    -0.05700
C765        C  0.59943918  0.51629078  0.03940475     0.00200
C766        C  0.59620185  0.54578612  0.05353930    -0.08300
C767        C  0.55576140  0.57261247  0.05646096     0.62100
H768        H  0.62940960  0.57144949  0.07623541     0.12800
H769        H  0.63764454  0.46692967  0.02725658     0.12800
C770        C  0.70924747  0.46286713  0.04808373     0.62300
F771        F  0.55658496  0.59360125  0.07245970    -0.22800
F772        F  0.51968678  0.54628214  0.05622402    -0.20200
F773        F  0.55216221  0.60344144  0.04341926    -0.19800
F774        F  0.71178645  0.43531878  0.06232808    -0.19900
F775        F  0.74652486  0.48733405  0.04715837    -0.20200
F776        F  0.70684859  0.43795608  0.03307644    -0.22900
C777        C  0.37967502  0.51578860  0.96262519    -0.05700
C778        C  0.40910363  0.48155547  0.96483283     0.00200
C779        C  0.40407743  0.44358633  0.95453856    -0.08400
C780        C  0.37033212  0.44205252  0.94215599    -0.05700
C781        C  0.34199051  0.47684057  0.93971857     0.00200
C782        C  0.34591803  0.51395698  0.95033254    -0.08300
C783        C  0.31375575  0.55088658  0.94903503     0.62100
H784        H  0.38315239  0.54417396  0.97074215     0.12800
H785        H  0.36616907  0.41383154  0.93398508     0.12800
C786        C  0.43460729  0.40527952  0.95607732     0.62300
F787        F  0.32106524  0.58210240  0.96164046    -0.22800
F788        F  0.27230809  0.53522340  0.95136293    -0.20200
F789        F  0.31675959  0.57040968  0.93278505    -0.19800
F790        F  0.42964522  0.38576233  0.97227393    -0.19900
F791        F  0.47686346  0.41892375  0.95405065    -0.20200
F792        F  0.42659293  0.37438119  0.94341010    -0.22900
C793        C  0.66090065  0.50488950  0.94618709    -0.05700
C794        C  0.65941715  0.46593202  0.93689868     0.00200
C795        C  0.62697209  0.43535208  0.94083262    -0.08400
C796        C  0.59752504  0.44442772  0.95439694    -0.05700
C797        C  0.59873887  0.48345617  0.96379650     0.00200
C798        C  0.63111915  0.51441497  0.95962810    -0.08300
C799        C  0.63501547  0.55701185  0.96934013     0.62100
H800        H  0.68563097  0.52806557  0.94267181     0.12800
H801        H  0.57248907  0.42126365  0.95750340     0.12800
C802        C  0.62236085  0.39421548  0.93023451     0.62300
F803        F  0.67214729  0.57918810  0.96470712    -0.22800
F804        F  0.63648893  0.54960282  0.98721787    -0.20200
F805        F  0.60007382  0.58312458  0.96539736    -0.19800
F806        F  0.65907878  0.36919549  0.93201110    -0.19900
F807        F  0.61654406  0.40449752  0.91274173    -0.20200
F808        F  0.58733836  0.36980911  0.93565510    -0.22900
C809        C  0.90005123  0.95015473  0.45028838    -0.05700
C810        C  0.89933088  0.98705214  0.46099127     0.00200
C811        C  0.86573963  0.01792211  0.45875913    -0.08400
C812        C  0.83476612  0.01103410  0.44556727    -0.05700
C813        C  0.83566790  0.97422381  0.43494546     0.00200
C814        C  0.86872741  0.94314101  0.43724945    -0.08300
C815        C  0.87145069  0.90323178  0.42577324     0.62100
H816        H  0.92574615  0.92680081  0.45214340     0.12800
H817        H  0.80922813  0.03441968  0.44344611     0.12800
C818        C  0.86153971  0.05734403  0.47046006     0.62300
F819        F  0.90907717  0.88012290  0.42871035    -0.22800
F820        F  0.87062721  0.91502061  0.40827724    -0.20200
F821        F  0.83692053  0.87635308  0.42930172    -0.19800
F822        F  0.89475549  0.08591815  0.46699266    -0.19900
F823        F  0.86293711  0.04496432  0.48788593    -0.20200
F824        F  0.82291197  0.07891967  0.46774383    -0.22900
C825        C  0.90918879  0.05014263  0.54811936    -0.05700
C826        C  0.90464293  0.01440880  0.53694102     0.00200
C827        C  0.86897395  0.98608344  0.53931376    -0.08400
C828        C  0.83963564  0.99439259  0.55302042    -0.05700
C829        C  0.84429422  0.03011359  0.56407402     0.00200
C830        C  0.87965595  0.05839183  0.56175598    -0.08300
C831        C  0.88655909  0.09648785  0.57389274     0.62100
H832        H  0.93654450  0.07144392  0.54619901     0.12800
H833        H  0.81246121  0.97301333  0.55522465     0.12800
C834        C  0.86077320  0.94812259  0.52718343     0.62300
F835        F  0.92452595  0.11823548  0.57014329    -0.22800
F836        F  0.88862589  0.08225023  0.59107060    -0.20200
F837        F  0.85267583  0.12527171  0.57217339    -0.19800
F838        F  0.82113313  0.92899344  0.53040571    -0.19900
F839        F  0.89230780  0.91701594  0.52954178    -0.20200
F840        F  0.86101683  0.96199802  0.50993598    -0.22900
C841        C  0.16493640  0.98899515  0.54592636    -0.05700
C842        C  0.16244402  0.02218515  0.55833250     0.00200
C843        C  0.12625204  0.05009377  0.55846567    -0.08400
C844        C  0.09343415  0.04384255  0.54597810    -0.05700
C845        C  0.09542260  0.01015574  0.53371337     0.00200
C846        C  0.13204891  0.98249721  0.53346545    -0.08300
C847        C  0.13708804  0.94702026  0.51988735     0.62100
H848        H  0.19281903  0.96785475  0.54622272     0.12800
H849        H  0.06539925  0.06478919  0.54591282     0.12800
C850        C  0.12190612  0.08549988  0.57206330     0.62300
F851        F  0.17759259  0.92809684  0.52057178    -0.22800
F852        F  0.13159157  0.96396299  0.50324099    -0.20200
F853        F  0.10677503  0.91505624  0.52280004    -0.19800
F854        F  0.15557002  0.11446153  0.57029040    -0.19900
F855        F  0.12295467  0.06763946  0.58869046    -0.20200
F856        F  0.08351234  0.10806605  0.57030476    -0.22900
C857        C  0.10893145  0.02039996  0.45261175    -0.05700
C858        C  0.08896620  0.98272792  0.45914091     0.00200
C859        C  0.10221747  0.94187093  0.45232049    -0.08400
C860        C  0.13433903  0.94083758  0.43924732    -0.05700
C861        C  0.15334058  0.97850751  0.43268732     0.00200
C862        C  0.14105701  0.01904651  0.43956874    -0.08300
C863        C  0.16275505  0.06061210  0.43365059     0.62100
H864        H  0.09934074  0.05137372  0.45785801     0.12800
H865        H  0.14487261  0.91030939  0.43383458     0.12800
C866        C  0.08301376  0.89922063  0.45845504     0.62300
F867        F  0.15023044  0.09554339  0.44374891    -0.22800
F868        F  0.15191869  0.06955894  0.41647062    -0.20200
F869        F  0.20712947  0.05650752  0.43500677    -0.19800
F870        F  0.03876206  0.89947214  0.45594363    -0.19900
F871        F  0.09236723  0.89272539  0.47598881    -0.20200
F872        F  0.09957103  0.86436642  0.44929621    -0.22900
C873        C  0.07902189  0.49915528  0.44645796    -0.05700
C874        C  0.08544158  0.51960386  0.46262037     0.00200
C875        C  0.12251521  0.54574055  0.46503692    -0.08400
C876        C  0.15399598  0.54670557  0.45173102    -0.05700
C877        C  0.14822679  0.52527639  0.43568515     0.00200
C878        C  0.10859791  0.50343890  0.43255922    -0.08300
C879        C  0.09538787  0.48701906  0.41458971     0.62100
H880        H  0.04974947  0.48055510  0.44458006     0.12800
H881        H  0.18365786  0.56440611  0.45382850     0.12800
C882        C  0.12911570  0.57251964  0.48147178     0.62300
F883        F  0.05088276  0.48387318  0.41324044    -0.22800
F884        F  0.11257232  0.44647391  0.41175194    -0.20200
F885        F  0.10906457  0.51509989  0.40159325    -0.19800
F886        F  0.12691284  0.54653485  0.49618831    -0.19900
F887        F  0.09753133  0.60404103  0.48240904    -0.20200
F888        F  0.16882328  0.59304662  0.48152184    -0.22900
C889        C  0.07718451  0.49109720  0.55503302    -0.05700
C890        C  0.08771889  0.48020999  0.53772210     0.00200
C891        C  0.12916591  0.46270290  0.53401275    -0.08400
C892        C  0.15888976  0.45811110  0.54782005    -0.05700
C893        C  0.14896894  0.47042770  0.56504809     0.00200
C894        C  0.10660687  0.48547593  0.56891174    -0.08300
C895        C  0.09111165  0.49371133  0.58752073     0.62100
H896        H  0.04509187  0.50360143  0.55768656     0.12800
H897        H  0.19094191  0.44572227  0.54496061     0.12800
C898        C  0.14472000  0.44905824  0.51595276     0.62300
F899        F  0.04644821  0.49300266  0.58855069    -0.22800
F900        F  0.10484354  0.53380713  0.59306260    -0.20200
F901        F  0.10655124  0.46216459  0.59876246    -0.19800
F902        F  0.18338362  0.46950393  0.51222260    -0.19900
F903        F  0.11628905  0.45892714  0.50263579    -0.20200
F904        F  0.15155941  0.40492214  0.51596186    -0.22900
C905        C  0.86440033  0.51327297  0.53785069    -0.05700
C906        C  0.89503586  0.47978487  0.53672127     0.00200
C907        C  0.88997301  0.44253474  0.54746116    -0.08400
C908        C  0.85508373  0.44103620  0.55933488    -0.05700
C909        C  0.82556761  0.47517476  0.56074732     0.00200
C910        C  0.82945033  0.51145345  0.54960278    -0.08300
C911        C  0.79610254  0.54746784  0.54983940     0.62100
H912        H  0.86795209  0.54108163  0.52933401     0.12800
H913        H  0.85102878  0.41350148  0.56795597     0.12800
C914        C  0.92176207  0.40515899  0.54693902     0.62300
F915        F  0.80386872  0.57799912  0.53693536    -0.22800
F916        F  0.79667167  0.56819513  0.56584944    -0.20200
F917        F  0.75544565  0.53034467  0.54703770    -0.19800
F918        F  0.96331971  0.42029348  0.54947032    -0.19900
F919        F  0.91916587  0.38449905  0.53093199    -0.20200
F920        F  0.91327863  0.37486366  0.55985914    -0.22900
C921        C  0.89657321  0.55155507  0.45309146    -0.05700
C922        C  0.89573035  0.51545867  0.46426940     0.00200
C923        C  0.86081204  0.48583625  0.46319236    -0.08400
C924        C  0.82947902  0.49197803  0.45009746    -0.05700
C925        C  0.83127496  0.52719570  0.43860757     0.00200
C926        C  0.86465228  0.55802768  0.44023118    -0.08300
C927        C  0.86680021  0.59699971  0.42816814     0.62100
H928        H  0.92298543  0.57427618  0.45429345     0.12800
H929        H  0.80331494  0.46903986  0.44862411     0.12800
C930        C  0.85576480  0.44854298  0.47602266     0.62300
F931        F  0.90263719  0.62233481  0.43151889    -0.22800
F932        F  0.83038872  0.62225222  0.43046595    -0.20200
F933        F  0.86887841  0.58356443  0.41091272    -0.19800
F934        F  0.86075413  0.46315844  0.49302359    -0.19900
F935        F  0.88631760  0.41711157  0.47254726    -0.20200
F936        F  0.81534351  0.42970780  0.47483826    -0.22900
C937        C  0.24830703  0.61499874  0.71394211    -0.05700
C938        C  0.26536192  0.65642004  0.71129581     0.00200
C939        C  0.28856367  0.66591095  0.69578422    -0.08400
C940        C  0.29476544  0.63287807  0.68342887    -0.05700
C941        C  0.27848888  0.59118249  0.68620514     0.00200
C942        C  0.25445219  0.58194491  0.70155849    -0.08300
C943        C  0.23434831  0.53786095  0.70454336     0.62100
H944        H  0.23019411  0.60878644  0.72583895     0.12800
H945        H  0.31214824  0.63939614  0.67138249     0.12800
C946        C  0.30517456  0.71114143  0.69207153     0.62300
F947        F  0.20959679  0.53672560  0.71966281    -0.22800
F948        F  0.26646068  0.50706039  0.70608402    -0.20200
F949        F  0.20791216  0.52748690  0.69057260    -0.19800
F950        F  0.33614778  0.72219951  0.70429163    -0.19900
F951        F  0.27136756  0.74031754  0.69294375    -0.20200
F952        F  0.32360124  0.71434186  0.67558336    -0.22900
C953        C  0.26277324  0.62176958  0.78710543    -0.05700
C954        C  0.22732648  0.64985329  0.78506399     0.00200
C955        C  0.18951330  0.64258406  0.79530021    -0.08400
C956        C  0.18995592  0.60933758  0.80794922    -0.05700
C957        C  0.22628104  0.58309813  0.81049886     0.00200
C958        C  0.26265893  0.58804551  0.79948559    -0.08300
C959        C  0.30055354  0.55696002  0.80045167     0.62100
H960        H  0.29089866  0.62645007  0.77886731     0.12800
H961        H  0.16210427  0.60402193  0.81628334     0.12800
C962        C  0.14935720  0.67035176  0.79347132     0.62300
F963        F  0.33015701  0.56423559  0.78715941    -0.22800
F964        F  0.28579878  0.51498720  0.79890743    -0.20200
F965        F  0.32167894  0.56151418  0.81627058    -0.19800
F966        F  0.13154321  0.66486206  0.77701475    -0.19900
F967        F  0.16011898  0.71315421  0.79591018    -0.20200
F968        F  0.11804535  0.65973167  0.80571252    -0.22900
C969        C  0.18066781  0.88759435  0.80647100    -0.05700
C970        C  0.21809613  0.90682288  0.81310219     0.00200
C971        C  0.25848558  0.89747219  0.80534278    -0.08400
C972        C  0.26043266  0.86586127  0.79217058    -0.05700
C973        C  0.22328807  0.84424267  0.78609562     0.00200
C974        C  0.18218715  0.85679081  0.79291359    -0.08300
C975        C  0.13988042  0.83815608  0.78627321     0.62100
H976        H  0.15007062  0.89647612  0.81232548     0.12800
H977        H  0.29149861  0.85776085  0.78656237     0.12800
C978        C  0.29915338  0.92174945  0.81050094     0.62300
F979        F  0.10447252  0.85498488  0.79502197    -0.22800
F980        F  0.13945182  0.79399852  0.78872119    -0.20200
F981        F  0.13497785  0.84770641  0.76867077    -0.19800
F982        F  0.31180379  0.90985814  0.82717625    -0.19900
F983        F  0.29139438  0.96575054  0.81008444    -0.20200
F984        F  0.33309334  0.91324454  0.79918434    -0.22900
C985        C  0.30262337  0.84592000  0.70318344    -0.05700
C986        C  0.26202840  0.84417360  0.71149736     0.00200
C987        C  0.22979419  0.87479214  0.70670037    -0.08400
C988        C  0.23885054  0.90442989  0.69316377    -0.05700
C989        C  0.27901799  0.90538108  0.68471876     0.00200
C990        C  0.31176294  0.87613357  0.68986896    -0.08300
C991        C  0.35563899  0.87597352  0.68095365     0.62100
H992        H  0.32711139  0.82272506  0.70697958     0.12800
H993        H  0.21436796  0.92722245  0.68894528     0.12800
C994        C  0.18632338  0.87719443  0.71592207     0.62300
F995        F  0.38202962  0.84335777  0.68727319    -0.22800
F996        F  0.37625104  0.91485328  0.68384125    -0.20200
F997        F  0.35055120  0.86994504  0.66312013    -0.19800
F998        F  0.19226434  0.87827049  0.73388880    -0.19900
F999        F  0.16153444  0.84176445  0.71150045    -0.20200
F1000       F  0.16351173  0.91392866  0.71123490    -0.22900
C1001       C  0.75210942  0.61958968  0.78708646    -0.05700
C1002       C  0.77900033  0.65589717  0.78839308     0.00200
C1003       C  0.80899876  0.65881376  0.80236450    -0.08400
C1004       C  0.81124943  0.62466889  0.81454613    -0.05700
C1005       C  0.78419051  0.58860723  0.81321216     0.00200
C1006       C  0.75425569  0.58566141  0.79931115    -0.08300
C1007       C  0.72504657  0.54663513  0.79741300     0.62100
H1008       H  0.72936688  0.61801949  0.77633166     0.12800
H1009       H  0.83364765  0.62614095  0.82542268     0.12800
C1010       C  0.83686952  0.69857645  0.80489377     0.62300
F1011       F  0.69967232  0.54919230  0.78251770    -0.22800
F1012       F  0.69796278  0.54358258  0.81177922    -0.20200
F1013       F  0.74986705  0.50957180  0.79631433    -0.19800
F1014       F  0.81091761  0.73491548  0.80547984    -0.19900
F1015       F  0.86587461  0.70237813  0.79119757    -0.20200
F1016       F  0.86019727  0.69667925  0.82034912    -0.22900
C1017       C  0.70526650  0.65250529  0.70416521    -0.05700
C1018       C  0.74174851  0.64971047  0.71505150     0.00200
C1019       C  0.76936775  0.61311649  0.71369834    -0.08400
C1020       C  0.76044977  0.58182675  0.70080347    -0.05700
C1021       C  0.72459324  0.58542364  0.68970491     0.00200
C1022       C  0.69626903  0.62098538  0.69143270    -0.08300
C1023       C  0.65738389  0.62605594  0.67951975     0.62100
H1024       H  0.68422508  0.68030356  0.70545363     0.12800
H1025       H  0.78161516  0.55420587  0.69919333     0.12800
C1026       C  0.80699122  0.60599910  0.72616173     0.62300
F1027       F  0.63430865  0.66329588  0.68315072    -0.22800
F1028       F  0.62997056  0.59124443  0.68167442    -0.20200
F1029       F  0.67084158  0.62798336  0.66224567    -0.19800
F1030       F  0.79263849  0.60865288  0.74330506    -0.19900
F1031       F  0.83855852  0.63672272  0.72328760    -0.20200
F1032       F  0.82573361  0.56575558  0.72392036    -0.22900
C1033       C  0.70051940  0.84536943  0.70481726    -0.05700
C1034       C  0.74166536  0.84318576  0.71263321     0.00200
C1035       C  0.77310258  0.87481851  0.70807900    -0.08400
C1036       C  0.76217912  0.90664845  0.69561415    -0.05700
C1037       C  0.72137853  0.90814570  0.68768278     0.00200
C1038       C  0.68992723  0.87703577  0.69226247    -0.08300
C1039       C  0.64618448  0.87594450  0.68330267     0.62100
H1040       H  0.67675781  0.82122968  0.70833450     0.12800
H1041       H  0.78584335  0.93052014  0.69167484     0.12800
C1042       C  0.81790547  0.87565779  0.71623012     0.62300
F1043       F  0.62104908  0.84188204  0.68916201    -0.22800
F1044       F  0.65181811  0.87142609  0.66541547    -0.20200
F1045       F  0.62393737  0.91374077  0.68662266    -0.19800
F1046       F  0.84123300  0.84002935  0.71078595    -0.19900
F1047       F  0.81477065  0.87553966  0.73430780    -0.20200
F1048       F  0.84082876  0.91216668  0.71139144    -0.22900
C1049       C  0.81409091  0.84309708  0.79814237    -0.05700
C1050       C  0.78109805  0.84780513  0.78566135     0.00200
C1051       C  0.75600027  0.88619541  0.78541895    -0.08400
C1052       C  0.76290018  0.91722357  0.79856185    -0.05700
C1053       C  0.79458252  0.91150065  0.81144351     0.00200
C1054       C  0.82119413  0.87440422  0.81115771    -0.08300
C1055       C  0.85638758  0.86784612  0.82472908     0.62100
H1056       H  0.83382183  0.81421127  0.79780996     0.12800
H1057       H  0.74326521  0.94620060  0.79900647     0.12800
C1058       C  0.72331102  0.89526081  0.77102998     0.62300
F1059       F  0.87732978  0.82866333  0.82265185    -0.22800
F1060       F  0.83870518  0.86880458  0.84137949    -0.20200
F1061       F  0.88668472  0.90040264  0.82319244    -0.19800
F1062       F  0.68901426  0.86694040  0.77232205    -0.19900
F1063       F  0.74276060  0.89066700  0.75482555    -0.20200
F1064       F  0.70703934  0.93684898  0.77203821    -0.22900
loop_ 
_geom_bond_atom_site_label_1 
_geom_bond_atom_site_label_2 
_geom_bond_distance 
_geom_bond_site_symmetry_2 
_ccdc_geom_bond_type 
O1           Cu9   2.020       .  S
O1           C11   1.278       .  A
O2           Cu9   2.013       .  S
O2           C12   1.277       .  A
O3           Cu9   2.017       .  S
O3           C13   1.278       .  A
O4           Cu9   2.012       .  S
O4           C14   1.278       .  A
O5          Cu10   2.013       .  S
O5           C14   1.278       .  A
O6          Cu10   2.015       .  S
O6           C13   1.279       .  A
O7          Cu10   2.006       .  S
O7           C12   1.277       .  A
O8          Cu10   2.005       .  S
O8           C11   1.278       .  A
Cu9         Cu10   2.369       .  S
C11        C1034   1.493       .  S
C12        C1002   1.478       .  S
C13        C1018   1.488       .  S
C14        C1050   1.481       .  S
O15         Cu23   2.009       .  S
O15          C25   1.277       .  A
O16         Cu23   2.015       .  S
O16          C26   1.276       .  A
O17         Cu23   2.014       .  S
O17          C27   1.277       .  A
O18         Cu23   2.016       .  S
O18          C28   1.277       .  A
O19         Cu24   2.014       .  S
O19          C28   1.280       .  A
O20         Cu24   2.012       .  S
O20          C27   1.279       .  A
O21         Cu24   2.010       .  S
O21          C26   1.279       .  A
O22         Cu24   2.004       .  S
O22          C25   1.276       .  A
Cu23        Cu24   2.365       .  S
C25         C938   1.472       .  S
C26         C973   1.500       .  S
C27         C986   1.492       .  S
C28         C954   1.494       .  S
O29         Cu37   2.013   1_455  S
O29          C39   1.279       .  A
O30         Cu37   2.012       .  S
O30          C40   1.277       .  A
O31         Cu37   1.998       .  S
O31          C41   1.275       .  A
O32         Cu37   2.010   1_455  S
O32          C42   1.277       .  A
O33         Cu38   2.019   1_455  S
O33          C42   1.279       .  A
O34         Cu38   2.016       .  S
O34          C41   1.279       .  A
O35         Cu38   2.007       .  S
O35          C40   1.278       .  A
O36         Cu38   2.007   1_455  S
O36          C39   1.276       .  A
Cu37        Cu38   2.370       .  S
C39         C874   1.482       .  S
C40         C906   1.488       .  S
C41         C922   1.481       .  S
C42         C890   1.478       .  S
N43          N44   1.321       .  A
N43          C47   1.343       .  A
N43         Cu51   2.066       .  S
N44          C45   1.348       .  A
N44         Cu50   2.079       .  S
C45          C46   1.385       .  A
C45          H48   1.082       .  S
C46         C909   1.476       .  S
C46          C47   1.380       .  A
C47          H49   1.081       .  S
Cu50         N53   2.080       .  S
Cu51         N61   2.067       .  S
Cu52         N54   2.093       .  S
Cu52         N60   2.092       .  S
N53          N54   1.325       .  A
N53          C57   1.344       .  A
N54          C55   1.349       .  A
C55          C56   1.386       .  A
C55          H58   1.083       .  S
C56         C536   1.473       .  S
C56          C57   1.381       .  A
C57          H59   1.083       .  S
N60          N61   1.323       .  A
N60          C64   1.349       .  A
N61          C62   1.344       .  A
C62          C63   1.379       .  A
C62          H65   1.081       .  S
C63        C1021   1.479       .  S
C63          C64   1.386       .  A
C64          H66   1.081       .  S
N67          N68   1.321       .  A
N67          C71   1.342       .  A
N67         Cu75   2.061       .  S
N68          C69   1.348       .  A
N68         Cu74   2.091       .  S
C69          C70   1.391       .  A
C69          H72   1.082       .  S
C70         C893   1.489       .  S
C70          C71   1.383       .  A
C71          H73   1.082       .  S
Cu74         N77   2.092       .  S
Cu75         N85   2.061       .  S
Cu76         N78   2.086       .  S
Cu76         N84   2.085       .  S
N77          N78   1.325       .  A
N77          C81   1.348       .  A
N78          C79   1.347       .  A
C79          C80   1.383       .  A
C79          H82   1.083       .  S
C80         C538   1.475       .  S
C80          C81   1.385       .  A
C81          H83   1.083       .  S
N84          N85   1.322       .  A
N84          C88   1.348       .  A
N85          C86   1.343       .  A
C86          C87   1.379       .  A
C86          H89   1.081       .  S
C87         C941   1.475       .  S
C87          C88   1.386       .  A
C88          H90   1.082       .  S
O91         Cu99   2.010   1_455  S
O91         C101   1.278       .  A
O92         Cu99   2.010       .  S
O92         C102   1.277   1_545  A
O93         Cu99   2.016       .  S
O93         C103   1.279       .  A
O94         Cu99   2.016   1_455  S
O94         C104   1.280   1_545  A
O95        Cu100   2.003   1_455  S
O95         C104   1.275       .  A
O96        Cu100   2.010       .  S
O96         C103   1.277   1_565  A
O97        Cu100   2.013       .  S
O97         C102   1.279       .  A
O98        Cu100   2.012   1_455  S
O98         C101   1.277   1_565  A
Cu99       Cu100   2.365   1_545  S
C101        C845   1.483       .  S
C102        C810   1.487       .  S
C103        C826   1.487       .  S
C104        C858   1.499       .  S
N105        N106   1.323       .  A
N105        C109   1.344   1_545  A
N105       Cu113   2.071   1_545  S
N106        C107   1.349       .  A
N106       Cu112   2.091       .  S
C107        C108   1.386       .  A
C107        H110   1.082       .  S
C108        C842   1.478       .  S
C108        C109   1.379   1_545  A
C109        H111   1.081       .  S
Cu112       N115   2.091       .  S
Cu113       N123   2.071       .  S
Cu114       N116   2.078       .  S
Cu114       N122   2.078   1_545  S
N115        N116   1.324       .  A
N115        C119   1.348       .  A
N116        C117   1.346       .  A
C117        C118   1.382       .  A
C117        H120   1.083       .  S
C118        C535   1.473       .  S
C118        C119   1.386       .  A
C119        H121   1.083       .  S
N122        N123   1.321       .  A
N122        C126   1.347       .  A
N123        C124   1.345       .  A
C124        C125   1.382       .  A
C124        H127   1.081       .  S
C125        C989   1.479       .  S
C125        C126   1.385       .  A
C126        H128   1.081       .  S
N129        N130   1.322       .  A
N129        C133   1.342       .  A
N129       Cu137   2.063       .  S
N130        C131   1.350       .  A
N130       Cu136   2.092   1_565  S
C131        C132   1.389       .  A
C131        H134   1.082       .  S
C132       C1037   1.482       .  S
C132        C133   1.379       .  A
C133        H135   1.081       .  S
Cu136       N139   2.093       .  S
Cu137       N147   2.063   1_565  S
Cu138       N140   2.092       .  S
Cu138       N146   2.091       .  S
N139        N140   1.325       .  A
N139        C143   1.347       .  A
N140        C141   1.349       .  A
C141        C142   1.385       .  A
C141        H144   1.083       .  S
C142        C537   1.477       .  S
C142        C143   1.384       .  A
C143        H145   1.083       .  S
N146        N147   1.322       .  A
N146        C150   1.349       .  A
N147        C148   1.344       .  A
C148        C149   1.380       .  A
C148        H151   1.083   1_545  S
C149        C829   1.478       .  S
C149        C150   1.387       .  A
C150        H152   1.081       .  S
O153       Cu161   2.010       .  S
O153        C163   1.277       .  A
O154       Cu161   2.010   1_556  S
O154        C164   1.279       .  A
O155       Cu161   2.009       .  S
O155        C165   1.278       .  A
O156       Cu161   2.007   1_556  S
O156        C166   1.276       .  A
O157       Cu162   2.016       .  S
O157        C166   1.280       .  A
O158       Cu162   2.018   1_554  S
O158        C165   1.278       .  A
O159       Cu162   2.017       .  S
O159        C164   1.278       .  A
O160       Cu162   2.011   1_554  S
O160        C163   1.278       .  A
Cu161      Cu162   2.367   1_554  S
C163        C749   1.485       .  S
C164        C797   1.491       .  S
C165        C765   1.481       .  S
C166        C778   1.491       .  S
N167        N168   1.322       .  A
N167        C171   1.343       .  A
N167       Cu175   2.064       .  S
N168        C169   1.346       .  A
N168       Cu174   2.074       .  S
C169        C170   1.382       .  A
C169        H172   1.082       .  S
C170       C1005   1.472       .  S
C170        C171   1.379       .  A
C171        H173   1.081       .  S
Cu174       N177   2.075       .  S
Cu175       N185   2.064       .  S
Cu176       N178   2.095       .  S
Cu176       N184   2.094       .  S
N177        N178   1.325       .  A
N177        C181   1.346       .  A
N178        C179   1.347       .  A
C179        C180   1.385       .  A
C179        H182   1.083       .  S
C180        C551   1.472       .  S
C180        C181   1.381       .  A
C181        H183   1.083       .  S
N184        N185   1.322       .  A
N184        C188   1.349       .  A
N185        C186   1.344       .  A
C186        C187   1.379       .  A
C186        H189   1.081       .  S
C187        C794   1.480       .  S
C187        C188   1.388       .  A
C188        H190   1.082       .  S
N191        N192   1.322       .  A
N191        C195   1.345       .  A
N191       Cu199   2.077       .  S
N192        C193   1.346       .  A
N192       Cu198   2.074       .  S
C193        C194   1.383       .  A
C193        H196   1.082       .  S
C194        C957   1.479       .  S
C194        C195   1.384       .  A
C195        H197   1.081       .  S
Cu198       N201   2.074       .  S
Cu199       N209   2.077       .  S
Cu200       N202   2.080       .  S
Cu200       N208   2.080       .  S
N201        N202   1.323       .  A
N201        C205   1.344       .  A
N202        C203   1.346       .  A
C203        C204   1.383       .  A
C203        H206   1.083       .  S
C204        C549   1.469       .  S
C204        C205   1.382       .  A
C205        H207   1.083       .  S
N208        N209   1.323       .  A
N208        C212   1.348       .  A
N209        C210   1.344       .  A
C210        C211   1.382       .  A
C210        H213   1.081       .  S
C211        C781   1.479       .  S
C211        C212   1.384       .  A
C212        H214   1.082       .  S
O215       Cu223   2.010       .  S
O215        C225   1.276       .  A
O216       Cu223   2.012       .  S
O216        C226   1.278       .  A
O217       Cu223   2.024       .  S
O217        C227   1.280       .  A
O218       Cu223   2.021       .  S
O218        C228   1.279       .  A
O219       Cu224   1.997       .  S
O219        C228   1.277       .  A
O220       Cu224   1.998       .  S
O220        C227   1.275       .  A
O221       Cu224   2.002       .  S
O221        C226   1.276       .  A
O222       Cu224   1.994       .  S
O222        C225   1.277       .  A
Cu223      Cu224   2.368       .  S
C225        C714   1.481       .  S
C226        C698   1.479       .  S
C227        C733   1.491       .  S
C228        C682   1.485       .  S
O229       Cu237   2.007   1_554  S
O229        C239   1.277       .  A
O230       Cu237   2.014       .  S
O230        C240   1.277   1_565  A
O231       Cu237   2.010   1_554  S
O231        C241   1.278       .  A
O232       Cu237   2.014       .  S
O232        C242   1.278   1_565  A
O233       Cu238   2.020   1_556  S
O233        C242   1.278       .  A
O234       Cu238   2.020       .  S
O234        C241   1.278   1_545  A
O235       Cu238   2.010   1_556  S
O235        C240   1.278       .  A
O236       Cu238   2.012       .  S
O236        C239   1.278   1_545  A
Cu237      Cu238   2.368   1_566  S
C239        C637   1.478       .  S
C240        C650   1.492       .  S
C241        C618   1.491       .  S
C242        C666   1.483       .  S
N243        N244   1.322       .  A
N243        C247   1.344       .  A
N243       Cu251   2.071       .  S
N244        C245   1.347       .  A
N244       Cu250   2.078   1_565  S
C245        C246   1.385       .  A
C245        H248   1.082       .  S
C246        C970   1.479       .  S
C246        C247   1.382       .  A
C247        H249   1.081       .  S
Cu250       N253   2.078       .  S
Cu251       N261   2.071       .  S
Cu252       N254   2.092       .  S
Cu252       N260   2.091       .  S
N253        N254   1.324       .  A
N253        C257   1.347       .  A
N254        C255   1.347       .  A
C255        C256   1.385       .  A
C255        H258   1.083       .  S
C256        C552   1.474       .  S
C256        C257   1.383       .  A
C257        H259   1.083       .  S
N260        N261   1.323   1_545  A
N260        C264   1.349       .  A
N261        C262   1.345       .  A
C262        C263   1.381   1_565  A
C262        H265   1.082       .  S
C263        C669   1.479       .  S
C263        C264   1.386       .  A
C264        H266   1.082       .  S
N267        N268   1.322       .  A
N267        C271   1.344       .  A
N267       Cu275   2.071   1_565  S
N268        C269   1.347       .  A
N268       Cu274   2.076   1_565  S
C269        C270   1.383       .  A
C269        H272   1.082       .  S
C270       C1053   1.475       .  S
C270        C271   1.381       .  A
C271        H273   1.080       .  S
Cu274       N277   2.077       .  S
Cu275       N285   2.072       .  S
Cu276       N278   2.077       .  S
Cu276       N284   2.077       .  S
N277        N278   1.324       .  A
N277        C281   1.344       .  A
N278        C279   1.346       .  A
C279        C280   1.382       .  A
C279        H282   1.083       .  S
C280        C550   1.466       .  S
C280        C281   1.381       .  A
C281        H283   1.083       .  S
N284        N285   1.322       .  A
N284        C288   1.347       .  A
N285        C286   1.344       .  A
C286        C287   1.382       .  A
C286        H289   1.081   1_545  S
C287        C653   1.479       .  S
C287        C288   1.385       .  A
C288        H290   1.082       .  S
O291       Cu299   2.016       .  S
O291        C301   1.277       .  A
O292       Cu299   2.014       .  S
O292        C302   1.280       .  A
O293       Cu299   2.017       .  S
O293        C303   1.277       .  A
O294       Cu299   2.015       .  S
O294        C304   1.279       .  A
O295       Cu300   2.010       .  S
O295        C304   1.277       .  A
O296       Cu300   2.000       .  S
O296        C303   1.278       .  A
O297       Cu300   2.002       .  S
O297        C302   1.275       .  A
O298       Cu300   1.998       .  S
O298        C301   1.277       .  A
Cu299      Cu300   2.370       .  S
C301        C602   1.477       .  S
C302        C557   1.486       .  S
C303        C589   1.492       .  S
C304        C570   1.477       .  S
N305        N306   1.321       .  A
N305        C309   1.342       .  A
N305       Cu313   2.061   1_545  S
N306        C307   1.348       .  A
N306       Cu312   2.088   1_545  S
C307        C308   1.390       .  A
C307        H310   1.082       .  S
C308        C573   1.488       .  S
C308        C309   1.384       .  A
C309        H311   1.080       .  S
Cu312       N315   2.089       .  S
Cu313       N323   2.061       .  S
Cu314       N316   2.085       .  S
Cu314       N322   2.084       .  S
N315        N316   1.325       .  A
N315        C319   1.348       .  A
N316        C317   1.346       .  A
C317        C318   1.383       .  A
C317        H320   1.083       .  S
C318        C508   1.473       .  S
C318        C319   1.384       .  A
C319        H321   1.083       .  S
N322        N323   1.322       .  A
N322        C326   1.348       .  A
N323        C324   1.342       .  A
C324        C325   1.378       .  A
C324        H327   1.082   1_565  S
C325        C634   1.473       .  S
C325        C326   1.385       .  A
C326        H328   1.082       .  S
N329        N330   1.322       .  A
N329        C333   1.342       .  A
N329       Cu337   2.060       .  S
N330        C331   1.349       .  A
N330       Cu336   2.087   1_545  S
C331        C332   1.386       .  A
C331        H334   1.082       .  S
C332        C701   1.475       .  S
C332        C333   1.378       .  A
C333        H335   1.082       .  S
Cu336       N339   2.088       .  S
Cu337       N347   2.060   1_545  S
Cu338       N340   2.090       .  S
Cu338       N346   2.090       .  S
N339        N340   1.325       .  A
N339        C343   1.347       .  A
N340        C341   1.347       .  A
C341        C342   1.384       .  A
C341        H344   1.083       .  S
C342        C509   1.474       .  S
C342        C343   1.384       .  A
C343        H345   1.083       .  S
N346        N347   1.322       .  A
N346        C350   1.349       .  A
N347        C348   1.343   1_565  A
C348        C349   1.379   1_545  A
C348        H351   1.081       .  S
C349        C621   1.478       .  S
C349        C350   1.387       .  A
C350        H352   1.082       .  S
N353        N354   1.322       .  A
N353        C357   1.343       .  A
N353       Cu361   2.057       .  S
N354        C355   1.349       .  A
N354       Cu360   2.095       .  S
C355        C356   1.387       .  A
C355        H358   1.082       .  S
C356        C762   1.478       .  S
C356        C357   1.378       .  A
C357        H359   1.082       .  S
Cu360       N363   2.096       .  S
Cu361       N371   2.057       .  S
Cu362       N364   2.089       .  S
Cu362       N370   2.087       .  S
N363        N364   1.325       .  A
N363        C367   1.349       .  A
N364        C365   1.348       .  A
C365        C366   1.384       .  A
C365        H368   1.083       .  S
C366        C507   1.477       .  S
C366        C367   1.385       .  A
C367        H369   1.083       .  S
N370        N371   1.322       .  A
N370        C374   1.349       .  A
N371        C372   1.342       .  A
C372        C373   1.377       .  A
C372        H375   1.081       .  S
C373        C685   1.474       .  S
C373        C374   1.386       .  A
C374        H376   1.082       .  S
N377        N378   1.322       .  A
N377        C381   1.344       .  A
N377       Cu385   2.065       .  S
N378        C379   1.347       .  A
N378       Cu384   2.084       .  S
C379        C380   1.386       .  A
C379        H382   1.081       .  S
C380        C746   1.480       .  S
C380        C381   1.381       .  A
C381        H383   1.081       .  S
Cu384       N387   2.085       .  S
Cu385       N395   2.066       .  S
Cu386       N388   2.080       .  S
Cu386       N394   2.080       .  S
N387        N388   1.324       .  A
N387        C391   1.346       .  A
N388        C389   1.347       .  A
C389        C390   1.384       .  A
C389        H392   1.083       .  S
C390        C510   1.473       .  S
C390        C391   1.384       .  A
C391        H393   1.083       .  S
N394        N395   1.323       .  A
N394        C398   1.347       .  A
N395        C396   1.343       .  A
C396        C397   1.379       .  A
C396        H399   1.082       .  S
C397        C554   1.472       .  S
C397        C398   1.383       .  A
C398        H400   1.082       .  S
N401        N402   1.322       .  A
N401        C405   1.344       .  A
N401       Cu409   2.068       .  S
N402        C403   1.345       .  A
N402       Cu408   2.076       .  S
C403        C404   1.385       .  A
C403        H406   1.082       .  S
C404        C861   1.479       .  S
C404        C405   1.382       .  A
C405        H407   1.080   1_565  S
Cu408       N411   2.076       .  S
Cu409       N419   2.067   1_565  S
Cu410       N412   2.070       .  S
Cu410       N418   2.069   1_565  S
N411        N412   1.324       .  A
N411        C415   1.346       .  A
N412        C413   1.343       .  A
C413        C414   1.380       .  A
C413        H416   1.083       .  S
C414        C524   1.464       .  S
C414        C415   1.382       .  A
C415        H417   1.083       .  S
N418        N419   1.319       .  A
N418        C422   1.346       .  A
N419        C420   1.341       .  A
C420        C421   1.386       .  A
C420        H423   1.073       .  S
C421        C605   1.486       .  S
C421        C422   1.387       .  A
C422        H424   1.082       .  S
N425        N426   1.322       .  A
N425        C429   1.345       .  A
N425       Cu433   2.077   1_565  S
N426        C427   1.346       .  A
N426       Cu432   2.075       .  S
C427        C428   1.383       .  A
C427        H430   1.082       .  S
C428        C813   1.479       .  S
C428        C429   1.383       .  A
C429        H431   1.082   1_565  S
Cu432       N435   2.075       .  S
Cu433       N443   2.077       .  S
Cu434       N436   2.077       .  S
Cu434       N442   2.077   1_565  S
N435        N436   1.323       .  A
N435        C439   1.346       .  A
N436        C437   1.345       .  A
C437        C438   1.382       .  A
C437        H440   1.083       .  S
C438        C522   1.468       .  S
C438        C439   1.382       .  A
C439        H441   1.083       .  S
N442        N443   1.322       .  A
N442        C446   1.348       .  A
N443        C444   1.344       .  A
C444        C445   1.383       .  A
C444        H447   1.081       .  S
C445        C730   1.480       .  S
C445        C446   1.385       .  A
C446        H448   1.081       .  S
N449        N450   1.322       .  A
N449        C453   1.344       .  A
N449       Cu457   2.069       .  S
N450        C451   1.345       .  A
N450       Cu456   2.070       .  S
C451        C452   1.381       .  A
C451        H454   1.081       .  S
C452        C925   1.473       .  S
C452        C453   1.381       .  A
C453        H455   1.081       .  S
Cu456       N459   2.071       .  S
Cu457       N467   2.069       .  S
Cu458       N460   2.071       .  S
Cu458       N466   2.071       .  S
N459        N460   1.323       .  A
N459        C463   1.344       .  A
N460        C461   1.344       .  A
C461        C462   1.382       .  A
C461        H464   1.083       .  S
C462        C523   1.465       .  S
C462        C463   1.381       .  A
C463        H465   1.083       .  S
N466        N467   1.322       .  A
N466        C470   1.346       .  A
N467        C468   1.343       .  A
C468        C469   1.381       .  A
C468        H471   1.081       .  S
C469        C717   1.473       .  S
C469        C470   1.382       .  A
C470        H472   1.082       .  S
N473        N474   1.321       .  A
N473        C477   1.343       .  A
N473       Cu481   2.068       .  S
N474        C475   1.345       .  A
N474       Cu480   2.080       .  S
C475        C476   1.389       .  A
C475        H478   1.082       .  S
C476        C877   1.490       .  S
C476        C477   1.386       .  A
C477        H479   1.081       .  S
Cu480       N483   2.080       .  S
Cu481       N491   2.069       .  S
Cu482       N484   2.066       .  S
Cu482       N490   2.066       .  S
N483        N484   1.323       .  A
N483        C487   1.347       .  A
N484        C485   1.343       .  A
C485        C486   1.380       .  A
C485        H488   1.083       .  S
C486        C521   1.466       .  S
C486        C487   1.384       .  A
C487        H489   1.083       .  S
N490        N491   1.321       .  A
N490        C494   1.345       .  A
N491        C492   1.344       .  A
C492        C493   1.382       .  A
C492        H495   1.081       .  S
C493        C586   1.474       .  S
C493        C494   1.381       .  A
C494        H496   1.082       .  S
O497       Cu505   2.023   1_655  S
O497        C507   1.279       .  A
O498       Cu505   2.018       .  S
O498        C508   1.278       .  A
O499       Cu505   2.021   1_655  S
O499        C509   1.279       .  A
O500       Cu505   2.020       .  S
O500        C510   1.279       .  A
O501       Cu506   2.012       .  S
O501        C510   1.278       .  A
O502       Cu506   2.014   1_655  S
O502        C509   1.278       .  A
O503       Cu506   2.016       .  S
O503        C508   1.278       .  A
O504       Cu506   2.021   1_655  S
O504        C507   1.279       .  A
Cu505      Cu506   2.374       .  S
O511       Cu519   2.007       .  S
O511        C521   1.277       .  A
O512       Cu519   2.008       .  S
O512        C522   1.277       .  A
O513       Cu519   2.003       .  S
O513        C523   1.276       .  A
O514       Cu519   2.001       .  S
O514        C524   1.277       .  A
O515       Cu520   2.009       .  S
O515        C524   1.277       .  A
O516       Cu520   2.011       .  S
O516        C523   1.278       .  A
O517       Cu520   2.013       .  S
O517        C522   1.278       .  A
O518       Cu520   2.012       .  S
O518        C521   1.277       .  A
Cu519      Cu520   2.377       .  S
O525       Cu533   2.011       .  S
O525        C535   1.277       .  A
O526       Cu533   2.010       .  S
O526        C536   1.278       .  A
O527       Cu533   2.026       .  S
O527        C537   1.279       .  A
O528       Cu533   2.023       .  S
O528        C538   1.279       .  A
O529       Cu534   2.017       .  S
O529        C538   1.278       .  A
O530       Cu534   2.018       .  S
O530        C537   1.278       .  A
O531       Cu534   2.022       .  S
O531        C536   1.279       .  A
O532       Cu534   2.022       .  S
O532        C535   1.279       .  A
Cu533      Cu534   2.374       .  S
O539       Cu547   2.004       .  S
O539        C549   1.277       .  A
O540       Cu547   2.002   1_655  S
O540        C550   1.276       .  A
O541       Cu547   2.024   1_655  S
O541        C551   1.280       .  A
O542       Cu547   2.023       .  S
O542        C552   1.280       .  A
O543       Cu548   2.011       .  S
O543        C552   1.277       .  A
O544       Cu548   2.008   1_655  S
O544        C551   1.277       .  A
O545       Cu548   2.014   1_655  S
O545        C550   1.278       .  A
O546       Cu548   2.017       .  S
O546        C549   1.278       .  A
Cu547      Cu548   2.376       .  S
C553        C554   1.399       .  A
C553        C558   1.408       .  A
C553        H560   1.083       .  S
C554        C555   1.412       .  A
C555        C556   1.405       .  A
C555        C562   1.518       .  S
C556        C557   1.406       .  A
C556        H561   1.083       .  S
C557        C558   1.424       .  A
C558        C559   1.520       .  S
C559        F563   1.385       .  S
C559        F564   1.383       .  S
C559        F565   1.384       .  S
C562        F566   1.383       .  S
C562        F567   1.382       .  S
C562        F568   1.385       .  S
C569        C570   1.402       .  A
C569        C574   1.407       .  A
C569        H576   1.085       .  S
C570        C571   1.422       .  A
C571        C572   1.407       .  A
C571        C578   1.520       .  S
C572        C573   1.403       .  A
C572        H577   1.085       .  S
C573        C574   1.421       .  A
C574        C575   1.520       .  S
C575        F579   1.385       .  S
C575        F580   1.383       .  S
C575        F581   1.382       .  S
C578        F582   1.378       .  S
C578        F583   1.383       .  S
C578        F584   1.384       .  S
C585        C586   1.400       .  A
C585        C590   1.409       .  A
C585        H592   1.083       .  S
C586        C587   1.412       .  A
C587        C588   1.403       .  A
C587        C594   1.520       .  S
C588        C589   1.408       .  A
C588        H593   1.083       .  S
C589        C590   1.425       .  A
C590        C591   1.520       .  S
C591        F595   1.385       .  S
C591        F596   1.383       .  S
C591        F597   1.383       .  S
C594        F598   1.383       .  S
C594        F599   1.381       .  S
C594        F600   1.385       .  S
C601        C602   1.400       .  A
C601        C606   1.402       .  A
C601        H608   1.084       .  S
C602        C603   1.416       .  A
C603        C604   1.410       .  A
C603        C610   1.518       .  S
C604        C605   1.407       .  A
C604        H609   1.082       .  S
C605        C606   1.421       .  A
C606        C607   1.520       .  S
C607        F611   1.385       .  S
C607        F612   1.384       .  S
C607        F613   1.381       .  S
C610        F614   1.381       .  S
C610        F615   1.383       .  S
C610        F616   1.384       .  S
C617        C618   1.408       .  A
C617        C622   1.408       .  A
C617        H624   1.082       .  S
C618        C619   1.423   1_565  A
C619        C620   1.410       .  A
C619        C626   1.519       .  S
C620        C621   1.401   1_545  A
C620        H625   1.082       .  S
C621        C622   1.413       .  A
C622        C623   1.518       .  S
C623        F627   1.385       .  S
C623        F628   1.384       .  S
C623        F629   1.382       .  S
C626        F630   1.383       .  S
C626        F631   1.384       .  S
C626        F632   1.385       .  S
C633        C634   1.401       .  A
C633        C638   1.407       .  A
C633        H640   1.083       .  S
C634        C635   1.413   1_565  A
C635        C636   1.407       .  A
C635        C642   1.517       .  S
C636        C637   1.404   1_545  A
C636        H641   1.083       .  S
C637        C638   1.418       .  A
C638        C639   1.519       .  S
C639        F643   1.385       .  S
C639        F644   1.383       .  S
C639        F645   1.382       .  S
C642        F646   1.383       .  S
C642        F647   1.383   1_545  S
C642        F648   1.385       .  S
C649        C650   1.408       .  A
C649        C654   1.408       .  A
C649        H656   1.083       .  S
C650        C651   1.424   1_545  A
C651        C652   1.408       .  A
C651        C658   1.520       .  S
C652        C653   1.400   1_565  A
C652        H657   1.083       .  S
C653        C654   1.414       .  A
C654        C655   1.519       .  S
C655        F659   1.385       .  S
C655        F660   1.383       .  S
C655        F661   1.381       .  S
C658        F662   1.382       .  S
C658        F663   1.384       .  S
C658        F664   1.385       .  S
C665        C666   1.405   1_565  A
C665        C670   1.408       .  A
C665        H672   1.083       .  S
C666        C667   1.418       .  A
C667        C668   1.410       .  A
C667        C674   1.518       .  S
C668        C669   1.402       .  A
C668        H673   1.082       .  S
C669        C670   1.413   1_545  A
C670        C671   1.517       .  S
C671        F675   1.385       .  S
C671        F676   1.383       .  S
C671        F677   1.383       .  S
C674        F678   1.384       .  S
C674        F679   1.382       .  S
C674        F680   1.385       .  S
C681        C682   1.407       .  A
C681        C686   1.406       .  A
C681        H688   1.084       .  S
C682        C683   1.421       .  A
C683        C684   1.408       .  A
C683        C690   1.519       .  S
C684        C685   1.401       .  A
C684        H689   1.084       .  S
C685        C686   1.411       .  A
C686        C687   1.517       .  S
C687        F691   1.384       .  S
C687        F692   1.382       .  S
C687        F693   1.383       .  S
C690        F694   1.384       .  S
C690        F695   1.382       .  S
C690        F696   1.385       .  S
C697        C698   1.405       .  A
C697        C702   1.407       .  A
C697        H704   1.084       .  S
C698        C699   1.418       .  A
C699        C700   1.407       .  A
C699        C706   1.519       .  S
C700        C701   1.401       .  A
C700        H705   1.084       .  S
C701        C702   1.413       .  A
C702        C703   1.517       .  S
C703        F707   1.385       .  S
C703        F708   1.383       .  S
C703        F709   1.382       .  S
C706        F710   1.382       .  S
C706        F711   1.383       .  S
C706        F712   1.384       .  S
C713        C714   1.405       .  A
C713        C718   1.402       .  A
C713        H720   1.083       .  S
C714        C715   1.420       .  A
C715        C716   1.409       .  A
C715        C722   1.519       .  S
C716        C717   1.402       .  A
C716        H721   1.083       .  S
C717        C718   1.413       .  A
C718        C719   1.519       .  S
C719        F723   1.385       .  S
C719        F724   1.381       .  S
C719        F725   1.383       .  S
C722        F726   1.384       .  S
C722        F727   1.383       .  S
C722        F728   1.385       .  S
C729        C730   1.399       .  A
C729        C734   1.405       .  A
C729        H736   1.083       .  S
C730        C731   1.415       .  A
C731        C732   1.411       .  A
C731        C738   1.518       .  S
C732        C733   1.409       .  A
C732        H737   1.083       .  S
C733        C734   1.425       .  A
C734        C735   1.521       .  S
C735        F739   1.383       .  S
C735        F740   1.384       .  S
C735        F741   1.385       .  S
C738        F742   1.383       .  S
C738        F743   1.382       .  S
C738        F744   1.385       .  S
C745        C746   1.401       .  A
C745        C750   1.408       .  A
C745        H752   1.084       .  S
C746        C747   1.416       .  A
C747        C748   1.408       .  A
C747        C754   1.519       .  S
C748        C749   1.405       .  A
C748        H753   1.083       .  S
C749        C750   1.421       .  A
C750        C751   1.520       .  S
C751        F755   1.385       .  S
C751        F756   1.383       .  S
C751        F757   1.384       .  S
C754        F758   1.383       .  S
C754        F759   1.381       .  S
C754        F760   1.385       .  S
C761        C762   1.402       .  A
C761        C766   1.410       .  A
C761        H768   1.084       .  S
C762        C763   1.414       .  A
C763        C764   1.406       .  A
C763        C770   1.518       .  S
C764        C765   1.404       .  A
C764        H769   1.084       .  S
C765        C766   1.419       .  A
C766        C767   1.518       .  S
C767        F771   1.385       .  S
C767        F772   1.384       .  S
C767        F773   1.382       .  S
C770        F774   1.382       .  S
C770        F775   1.383       .  S
C770        F776   1.385       .  S
C777        C778   1.407       .  A
C777        C782   1.406       .  A
C777        H784   1.082       .  S
C778        C779   1.425       .  A
C779        C780   1.410       .  A
C779        C786   1.520       .  S
C780        C781   1.401       .  A
C780        H785   1.083       .  S
C781        C782   1.413       .  A
C782        C783   1.519       .  S
C783        F787   1.384       .  S
C783        F788   1.383       .  S
C783        F789   1.381       .  S
C786        F790   1.383       .  S
C786        F791   1.384       .  S
C786        F792   1.385       .  S
C793        C794   1.402       .  A
C793        C798   1.410       .  A
C793        H800   1.083       .  S
C794        C795   1.413       .  A
C795        C796   1.407       .  A
C795        C802   1.518       .  S
C796        C797   1.408       .  A
C796        H801   1.082       .  S
C797        C798   1.423       .  A
C798        C799   1.520       .  S
C799        F803   1.385       .  S
C799        F804   1.384       .  S
C799        F805   1.383       .  S
C802        F806   1.382       .  S
C802        F807   1.383       .  S
C802        F808   1.385       .  S
C809        C810   1.406       .  A
C809        C814   1.408       .  A
C809        H816   1.084       .  S
C810        C811   1.422   1_565  A
C811        C812   1.408       .  A
C811        C818   1.520       .  S
C812        C813   1.401   1_545  A
C812        H817   1.084       .  S
C813        C814   1.415       .  A
C814        C815   1.519       .  S
C815        F819   1.385       .  S
C815        F820   1.383       .  S
C815        F821   1.382       .  S
C818        F822   1.382       .  S
C818        F823   1.384       .  S
C818        F824   1.385       .  S
C825        C826   1.406       .  A
C825        C830   1.408       .  A
C825        H832   1.084       .  S
C826        C827   1.422   1_545  A
C827        C828   1.408       .  A
C827        C834   1.520       .  S
C828        C829   1.401   1_565  A
C828        H833   1.084       .  S
C829        C830   1.414       .  A
C830        C831   1.517       .  S
C831        F835   1.385       .  S
C831        F836   1.383       .  S
C831        F837   1.382       .  S
C834        F838   1.385       .  S
C834        F839   1.382       .  S
C834        F840   1.383       .  S
C841        C842   1.401   1_565  A
C841        C846   1.409       .  A
C841        H848   1.083       .  S
C842        C843   1.414       .  A
C843        C844   1.408       .  A
C843        C850   1.517       .  S
C844        C845   1.405       .  A
C844        H849   1.083       .  S
C845        C846   1.420   1_545  A
C846        C847   1.520       .  S
C847        F851   1.384       .  S
C847        F852   1.384       .  S
C847        F853   1.382       .  S
C850        F854   1.382       .  S
C850        F855   1.383       .  S
C850        F856   1.385       .  S
C857        C858   1.411   1_545  A
C857        C862   1.407       .  A
C857        H864   1.081       .  S
C858        C859   1.429       .  A
C859        C860   1.408       .  A
C859        C866   1.522       .  S
C860        C861   1.399       .  A
C860        H865   1.082       .  S
C861        C862   1.414   1_565  A
C862        C863   1.520       .  S
C863        F867   1.385       .  S
C863        F868   1.381       .  S
C863        F869   1.383       .  S
C866        F870   1.384       .  S
C866        F871   1.383       .  S
C866        F872   1.385       .  S
C873        C874   1.402       .  A
C873        C878   1.406       .  A
C873        H880   1.084       .  S
C874        C875   1.418       .  A
C875        C876   1.407       .  A
C875        C882   1.519       .  S
C876        C877   1.406       .  A
C876        H881   1.082       .  S
C877        C878   1.422       .  A
C878        C879   1.520       .  S
C879        F883   1.385       .  S
C879        F884   1.381       .  S
C879        F885   1.384       .  S
C882        F886   1.382       .  S
C882        F887   1.383       .  S
C882        F888   1.385       .  S
C889        C890   1.402       .  A
C889        C894   1.408       .  A
C889        H896   1.085       .  S
C890        C891   1.421       .  A
C891        C892   1.406       .  A
C891        C898   1.520       .  S
C892        C893   1.403       .  A
C892        H897   1.086       .  S
C893        C894   1.422       .  A
C894        C895   1.520       .  S
C895        F899   1.385       .  S
C895        F900   1.381       .  S
C895        F901   1.384       .  S
C898        F902   1.384       .  S
C898        F903   1.379       .  S
C898        F904   1.383       .  S
C905        C906   1.407       .  A
C905        C910   1.406       .  A
C905        H912   1.083       .  S
C906        C907   1.422       .  A
C907        C908   1.410       .  A
C907        C914   1.519       .  S
C908        C909   1.401       .  A
C908        H913   1.083       .  S
C909        C910   1.413       .  A
C910        C911   1.519       .  S
C911        F915   1.385       .  S
C911        F916   1.382       .  S
C911        F917   1.383       .  S
C914        F918   1.384       .  S
C914        F919   1.383       .  S
C914        F920   1.384       .  S
C921        C922   1.405       .  A
C921        C926   1.407       .  A
C921        H928   1.084       .  S
C922        C923   1.421       .  A
C923        C924   1.406       .  A
C923        C930   1.520       .  S
C924        C925   1.399       .  A
C924        H929   1.084       .  S
C925        C926   1.414       .  A
C926        C927   1.518       .  S
C927        F931   1.384       .  S
C927        F932   1.382       .  S
C927        F933   1.383       .  S
C930        F934   1.384       .  S
C930        F935   1.382       .  S
C930        F936   1.384       .  S
C937        C938   1.402       .  A
C937        C942   1.407       .  A
C937        H944   1.083       .  S
C938        C939   1.414       .  A
C939        C940   1.406       .  A
C939        C946   1.519       .  S
C940        C941   1.402       .  A
C940        H945   1.083       .  S
C941        C942   1.416       .  A
C942        C943   1.518       .  S
C943        F947   1.385       .  S
C943        F948   1.382       .  S
C943        F949   1.383       .  S
C946        F950   1.382       .  S
C946        F951   1.384       .  S
C946        F952   1.384       .  S
C953        C954   1.408       .  A
C953        C958   1.407       .  A
C953        H960   1.083       .  S
C954        C955   1.424       .  A
C955        C956   1.410       .  A
C955        C962   1.517       .  S
C956        C957   1.400       .  A
C956        H961   1.083       .  S
C957        C958   1.413       .  A
C958        C959   1.518       .  S
C959        F963   1.384       .  S
C959        F964   1.384       .  S
C959        F965   1.381       .  S
C962        F966   1.383       .  S
C962        F967   1.380       .  S
C962        F968   1.385       .  S
C969        C970   1.399       .  A
C969        C974   1.410       .  A
C969        H976   1.082       .  S
C970        C971   1.413       .  A
C971        C972   1.406       .  A
C971        C978   1.520       .  S
C972        C973   1.411       .  A
C972        H977   1.082       .  S
C973        C974   1.428       .  A
C974        C975   1.520       .  S
C975        F979   1.385       .  S
C975        F980   1.380       .  S
C975        F981   1.383       .  S
C978        F982   1.381       .  S
C978        F983   1.384       .  S
C978        F984   1.385       .  S
C985        C986   1.408       .  A
C985        C990   1.408       .  A
C985        H992   1.083       .  S
C986        C987   1.423       .  A
C987        C988   1.408       .  A
C987        C994   1.520       .  S
C988        C989   1.400       .  A
C988        H993   1.084       .  S
C989        C990   1.414       .  A
C990        C991   1.518       .  S
C991        F995   1.385       .  S
C991        F996   1.382       .  S
C991        F997   1.383       .  S
C994        F998   1.384       .  S
C994        F999   1.383       .  S
C994       F1000   1.385       .  S
C1001      C1002   1.404       .  A
C1001      C1006   1.405       .  A
C1001      H1008   1.083       .  S
C1002      C1003   1.418       .  A
C1003      C1004   1.408       .  A
C1003      C1010   1.517       .  S
C1004      C1005   1.401       .  A
C1004      H1009   1.083       .  S
C1005      C1006   1.413       .  A
C1006      C1007   1.518       .  S
C1007      F1011   1.384       .  S
C1007      F1012   1.382       .  S
C1007      F1013   1.383       .  S
C1010      F1014   1.383       .  S
C1010      F1015   1.382       .  S
C1010      F1016   1.385       .  S
C1017      C1018   1.405       .  A
C1017      C1022   1.407       .  A
C1017      H1024   1.084       .  S
C1018      C1019   1.423       .  A
C1019      C1020   1.411       .  A
C1019      C1026   1.520       .  S
C1020      C1021   1.401       .  A
C1020      H1025   1.084       .  S
C1021      C1022   1.413       .  A
C1022      C1023   1.517       .  S
C1023      F1027   1.384       .  S
C1023      F1028   1.382       .  S
C1023      F1029   1.383       .  S
C1026      F1030   1.384       .  S
C1026      F1031   1.382       .  S
C1026      F1032   1.385       .  S
C1033      C1034   1.409       .  A
C1033      C1038   1.408       .  A
C1033      H1040   1.083       .  S
C1034      C1035   1.424       .  A
C1035      C1036   1.409       .  A
C1035      C1042   1.521       .  S
C1036      C1037   1.402       .  A
C1036      H1041   1.083       .  S
C1037      C1038   1.414       .  A
C1038      C1039   1.518       .  S
C1039      F1043   1.385       .  S
C1039      F1044   1.383       .  S
C1039      F1045   1.381       .  S
C1042      F1046   1.383       .  S
C1042      F1047   1.383       .  S
C1042      F1048   1.385       .  S
C1049      C1050   1.405       .  A
C1049      C1054   1.407       .  A
C1049      H1056   1.083       .  S
C1050      C1051   1.420       .  A
C1051      C1052   1.407       .  A
C1051      C1058   1.519       .  S
C1052      C1053   1.400       .  A
C1052      H1057   1.084       .  S
C1053      C1054   1.413       .  A
C1054      C1055   1.517       .  S
C1055      F1059   1.385       .  S
C1055      F1060   1.383       .  S
C1055      F1061   1.383       .  S
C1058      F1062   1.381       .  S
C1058      F1063   1.382       .  S
C1058      F1064   1.385       .  S
