geometry optimzed in LAMMPS
_audit_creation_date              2020-11-30 
_audit_creation_method            'lammps2cif' 
_symmetry_space_group_name_H-M    'P1' 
_symmetry_Int_Tables_number       1 
_symmetry_cell_setting            triclinic 
loop_ 
_symmetry_equiv_pos_as_xyz 
  x,y,z 
_cell_length_a                    74.37947921 
_cell_length_b                    74.00599541816182 
_cell_length_c                    39.71427440112223 
_cell_angle_alpha                 90.00715582072984 
_cell_angle_beta                  89.94764568309665 
_cell_angle_gamma                 90.10565575690808 
loop_ 
_atom_site_label 
_atom_site_type_symbol 
_atom_site_fract_x 
_atom_site_fract_y 
_atom_site_fract_z 
_atom_site_charge 
N1          N  0.19159568  0.50299216  0.16533147    -0.27400
N2          N  0.17817854  0.50928704  0.14704272    -0.35200
C3          C  0.17401102  0.49694233  0.12328014     0.01000
C4          C  0.18529413  0.48210356  0.12709375     0.07000
C5          C  0.19628329  0.48658015  0.15395446    -0.06100
H6          H  0.16403589  0.49897990  0.10386919     0.07700
H7          H  0.20723741  0.47865743  0.16404291     0.08900
Cu8        Cu  0.16701804  0.53476496  0.15583904     0.44200
Cu9        Cu  0.20415249  0.51756508  0.20289397     0.42000
Cu10       Cu  0.18651948  0.56053406  0.22724105     0.43900
N11         N  0.15759240  0.55967106  0.17332150    -0.34800
N12         N  0.16420589  0.56845385  0.19964321    -0.29000
C13         C  0.15462701  0.58362085  0.20461334    -0.05100
C14         C  0.14145539  0.58449305  0.18025234     0.07100
C15         C  0.14374053  0.56921109  0.16070102     0.00900
H16         H  0.15726464  0.59344351  0.22417944     0.08600
H17         H  0.13584583  0.56525541  0.13904913     0.07600
N18         N  0.21027363  0.55022176  0.24658130    -0.36200
N19         N  0.21679868  0.53448659  0.23674741    -0.28400
C20         C  0.23278699  0.53177124  0.25149800    -0.03600
C21         C  0.23644290  0.54638506  0.27194236     0.05000
C22         C  0.22191116  0.55789293  0.26832282     0.03100
H23         H  0.24114807  0.52000481  0.24761252     0.08200
H24         H  0.22013008  0.57098649  0.27996228     0.07000
N25         N  0.23026813  0.37979874  0.91632427    -0.27400
N26         N  0.22502154  0.36419218  0.90347045    -0.35200
C27         C  0.23625959  0.35966839  0.87820702     0.01000
C28         C  0.24905367  0.37325130  0.87460970     0.07000
C29         C  0.24486063  0.38565924  0.89954103    -0.06100
H30         H  0.23523978  0.34729591  0.86386525     0.07700
H31         H  0.25179939  0.39819901  0.90486009     0.08900
Cu32       Cu  0.20216314  0.35050684  0.92030408     0.44200
Cu33       Cu  0.21742841  0.39242708  0.95627659     0.42000
Cu34       Cu  0.17797132  0.37077688  0.99139551     0.43900
N35         N  0.17761486  0.34103690  0.93882459    -0.34800
N36         N  0.16888437  0.34821374  0.96461802    -0.29000
C37         C  0.15324927  0.33923761  0.96892106    -0.05100
C38         C  0.15192242  0.32597927  0.94437862     0.07100
C39         C  0.16771341  0.32743353  0.92602135     0.00900
H40         H  0.14331071  0.34248313  0.98787578     0.08600
H41         H  0.17169454  0.31926298  0.90470352     0.07600
N42         N  0.18922644  0.39446939  0.01090024    -0.36200
N43         N  0.20351696  0.40236766  0.99759875    -0.28400
C44         C  0.20705073  0.41768784  0.01456687    -0.03600
C45         C  0.19453709  0.41955690  0.04019814     0.05000
C46         C  0.18332548  0.40462697  0.03682379     0.03100
H47         H  0.21756454  0.42711479  0.00776125     0.08200
H48         H  0.17156343  0.40152651  0.05180503     0.07000
N49         N  0.32481250  0.39214527  0.73899580    -0.27400
N50         N  0.33286315  0.37755857  0.75087232    -0.35200
C51         C  0.32318072  0.37095502  0.77677605     0.01000
C52         C  0.30831034  0.38187309  0.78123251     0.07000
C53         C  0.30969757  0.39511475  0.75681733    -0.06100
H54         H  0.32641187  0.35879575  0.79060436     0.07700
H55         H  0.30029316  0.40594901  0.75205469     0.08900
Cu56       Cu  0.35551650  0.36625933  0.72874887     0.44200
Cu57       Cu  0.33444557  0.40683047  0.69813623     0.42000
Cu58       Cu  0.36834071  0.38474281  0.64710879     0.43900
N59         N  0.37529845  0.35520284  0.69813795    -0.34800
N60         N  0.37943265  0.36137621  0.66786466    -0.29000
C61         C  0.39227759  0.35077398  0.65445887    -0.05100
C62         C  0.39676185  0.33747120  0.67766191     0.07100
C63         C  0.38550525  0.34066428  0.70486333     0.00900
H64         H  0.39776817  0.35261660  0.62949504     0.08600
H65         H  0.38490395  0.33308027  0.72812421     0.07600
N66         N  0.35772987  0.41015778  0.63612018    -0.36200
N67         N  0.34589571  0.41847523  0.65556066    -0.28400
C68         C  0.34239277  0.43490647  0.64259699    -0.03600
C69         C  0.35245540  0.43704592  0.61354392     0.05000
C70         C  0.36187409  0.42102123  0.61001447     0.03100
H71         H  0.33288044  0.44441078  0.65309712     0.08200
H72         H  0.37115382  0.41757408  0.59003716     0.07000
N73         N  0.34257919  0.51447674  0.47664095    -0.27400
N74         N  0.35852951  0.51993745  0.48728455    -0.35200
C75         C  0.36367659  0.50929636  0.51308470     0.01000
C76         C  0.35042868  0.49640739  0.51855182     0.07000
C77         C  0.33718449  0.50027798  0.49521629    -0.06100
H78         H  0.37642532  0.51039000  0.52602249     0.07700
H79         H  0.32466893  0.49308209  0.49151338     0.08900
Cu80       Cu  0.37292984  0.54080106  0.46410720     0.44200
Cu81       Cu  0.32933223  0.52555738  0.43572012     0.42000
Cu82       Cu  0.35387834  0.55808415  0.38582110     0.43900
N83         N  0.38492611  0.56088114  0.43458844    -0.34800
N84         N  0.37829808  0.56659829  0.40562548    -0.29000
C85         C  0.38919446  0.57943941  0.39296754    -0.05100
C86         C  0.40349895  0.58206528  0.41488236     0.07100
C87         C  0.40010918  0.57015433  0.44124384     0.00900
H88         H  0.38667192  0.58655608  0.36966630     0.08600
H89         H  0.40763982  0.56875302  0.46433453     0.07600
N90         N  0.32797375  0.54956831  0.37446282    -0.36200
N91         N  0.31898253  0.53782517  0.39308462    -0.28400
C92         C  0.30243606  0.53566195  0.38015853    -0.03600
C93         C  0.30091337  0.54646377  0.35187202     0.05000
C94         C  0.31734904  0.55519478  0.34913047     0.03100
H95         H  0.29222642  0.52687165  0.39063950     0.08200
H96         H  0.32116187  0.56527953  0.33074375     0.07000
N97         N  0.22800170  0.88179565  0.20490655    -0.27400
N98         N  0.22051955  0.86772298  0.21994626    -0.35200
C99         C  0.23127090  0.86224330  0.24522906     0.01000
C100        C  0.24623524  0.87341252  0.24604530     0.07000
C101        C  0.24375361  0.88553249  0.21996140    -0.06100
H102        H  0.22858738  0.85073536  0.26126985     0.07700
H103        H  0.25274632  0.89632513  0.21250494     0.08900
Cu104      Cu  0.19639029  0.85630484  0.20422337     0.44200
Cu105      Cu  0.21666518  0.89530723  0.16438640     0.42000
Cu106      Cu  0.17636168  0.87589887  0.12902565     0.43900
N107        N  0.17252962  0.84730612  0.18271892    -0.34800
N108        N  0.16533759  0.85435035  0.15526966    -0.29000
C109        C  0.14989225  0.84564293  0.14832333    -0.05100
C110        C  0.14728973  0.83234533  0.17237089     0.07100
C111        C  0.16183318  0.83392258  0.19392582     0.00900
H112        H  0.14101614  0.84908905  0.12775855     0.08600
H113        H  0.16446196  0.82590214  0.21615180     0.07600
N114        N  0.18893277  0.89862590  0.10956414    -0.36200
N115        N  0.20336139  0.90607011  0.12311994    -0.28400
C116        C  0.20755112  0.92115085  0.10590169    -0.03600
C117        C  0.19537753  0.92315574  0.07970461     0.05000
C118        C  0.18368424  0.90864695  0.08313336     0.03100
H119        H  0.21833692  0.93021726  0.11280570     0.08200
H120        H  0.17208131  0.90564147  0.06769795     0.07000
N121        N  0.32716261  0.88486301  0.37129106    -0.27400
N122        N  0.33483782  0.87046739  0.35788206    -0.35200
C123        C  0.32403668  0.86389770  0.33351810     0.01000
C124        C  0.30882917  0.87467360  0.33186869     0.07000
C125        C  0.31123734  0.88772210  0.35631166    -0.06100
H126        H  0.32688849  0.85202825  0.31854970     0.07700
H127        H  0.30217837  0.89866296  0.36245005     0.08900
Cu128      Cu  0.35926375  0.86043874  0.37535644     0.44200
Cu129      Cu  0.33891510  0.90037345  0.40850167     0.42000
Cu130      Cu  0.38186006  0.88671682  0.44189698     0.43900
N131        N  0.38280408  0.85261630  0.39972643    -0.34800
N132        N  0.39108661  0.86215339  0.42326141    -0.29000
C133        C  0.40547833  0.85283521  0.43414025    -0.05100
C134        C  0.40641136  0.83665958  0.41659769     0.07100
C135        C  0.39164402  0.83695592  0.39531085     0.00900
H136        H  0.41443668  0.85738322  0.45385512     0.08600
H137        H  0.38712267  0.82627311  0.37878606     0.07600
N138        N  0.36846689  0.90995018  0.45720015    -0.36200
N139        N  0.35285384  0.91494529  0.44436093    -0.28400
C140        C  0.34766418  0.93051682  0.45871620    -0.03600
C141        C  0.36047681  0.93545936  0.48207930     0.05000
C142        C  0.37352813  0.92216420  0.48050655     0.03100
H143        H  0.33532185  0.93757627  0.45293081     0.08200
H144        H  0.38580856  0.92148041  0.49502348     0.07000
N145        N  0.31594354  0.03784607  0.68673681    -0.27400
N146        N  0.32388311  0.05033115  0.70530434    -0.35200
C147        C  0.31316924  0.05456668  0.73134967     0.01000
C148        C  0.29763298  0.04441572  0.72878039     0.07000
C149        C  0.29986873  0.03385707  0.70034727    -0.06100
H150        H  0.31647799  0.06426684  0.75077452     0.07700
H151        H  0.29076251  0.02365126  0.69083457     0.08900
Cu152      Cu  0.34878389  0.06109073  0.69427136     0.44200
Cu153      Cu  0.32789650  0.02631137  0.64496719     0.42000
Cu154      Cu  0.36997902  0.04631134  0.61678385     0.43900
N155        N  0.37250762  0.07172745  0.67600976    -0.34800
N156        N  0.38001619  0.06683016  0.64727382    -0.29000
C157        C  0.39486937  0.07687761  0.64233959    -0.05100
C158        C  0.39672275  0.08877393  0.66914069     0.07100
C159        C  0.38239966  0.08486859  0.69021579     0.00900
H160        H  0.40362731  0.07567370  0.62069569     0.08600
H161        H  0.37944373  0.09083464  0.71442739     0.07600
N162        N  0.35822364  0.02373749  0.59462269    -0.36200
N163        N  0.34315061  0.01628753  0.60566870    -0.28400
C164        C  0.34005324  0.00094965  0.58853803    -0.03600
C165        C  0.35366151  0.99874940  0.56527465     0.05000
C166        C  0.36499550  0.01339297  0.56977309     0.03100
H167        H  0.32894539  0.99183197  0.59325670     0.08200
H168        H  0.37764562  0.01586778  0.55710708     0.07000
N169        N  0.19638503  0.99910238  0.93883832    -0.27400
N170        N  0.18082633  0.00465285  0.95101818    -0.35200
C171        C  0.17589319  0.99369400  0.97644697     0.01000
C172        C  0.18883471  0.98033623  0.98012104     0.07000
C173        C  0.20166196  0.98435790  0.95585628    -0.06100
H174        H  0.16416918  0.99589885  0.99197998     0.07700
H175        H  0.21412735  0.97726926  0.95122129     0.08900
Cu176      Cu  0.16767866  0.02748049  0.93341419     0.44200
Cu177      Cu  0.21038095  0.01263399  0.90146039     0.42000
Cu178      Cu  0.18974597  0.05323570  0.86757360     0.43900
N179        N  0.15819863  0.05185931  0.91476090    -0.34800
N180        N  0.16631100  0.06140079  0.89106035    -0.29000
C181        C  0.15767425  0.07723197  0.88724609    -0.05100
C182        C  0.14329783  0.07761374  0.90943076     0.07100
C183        C  0.14414456  0.06131561  0.92651260     0.00900
H184        H  0.16219944  0.08802870  0.87094937     0.08600
H185        H  0.13556311  0.05692834  0.94695834     0.07600
N186        N  0.21411185  0.04302850  0.85136676    -0.36200
N187        N  0.22185483  0.02854716  0.86433342    -0.28400
C188        C  0.23773255  0.02589499  0.84895873    -0.03600
C189        C  0.24006097  0.03936432  0.82523138     0.05000
C190        C  0.22476338  0.04987001  0.82716362     0.03100
H191        H  0.24669202  0.01473618  0.85412565     0.08200
H192        H  0.22163711  0.06166754  0.81219969     0.07000
C193        C  0.45625327  0.77793729  0.44069191     0.03000
C194        C  0.45130839  0.75998165  0.43333392    -0.13100
C195        C  0.46387095  0.74601238  0.43693192     0.00500
C196        C  0.48130684  0.75000496  0.44777155    -0.11600
C197        C  0.48646959  0.76779189  0.45496061     0.03000
C198        C  0.47393220  0.78177796  0.45114184    -0.11000
H199        H  0.43787027  0.75695161  0.42442522     0.08600
H200        H  0.49112426  0.73922275  0.44949138     0.06200
H201        H  0.47799984  0.79563429  0.45568866     0.06000
C202        C  0.59417455  0.77753040  0.46986600     0.03000
C203        C  0.57575084  0.78170100  0.47138762    -0.13100
C204        C  0.56284402  0.76810534  0.46643640     0.00500
C205        C  0.56846095  0.75039466  0.45995306    -0.11600
C206        C  0.58674043  0.74614248  0.45781143     0.03000
C207        C  0.59964651  0.75973041  0.46281315    -0.11000
H208        H  0.57149737  0.79539501  0.47680867     0.08600
H209        H  0.55851239  0.73987927  0.45591348     0.06200
H210        H  0.61382538  0.75647750  0.46139127     0.06000
C211        C  0.45825133  0.63847093  0.40633819     0.03000
C212        C  0.45331215  0.65663149  0.41192825    -0.13100
C213        C  0.46624235  0.67044669  0.41110720     0.00500
C214        C  0.48433765  0.66603977  0.40627439    -0.11600
C215        C  0.48970550  0.64805260  0.40255558     0.03000
C216        C  0.47665740  0.63431027  0.40204638    -0.11000
H217        H  0.43945062  0.66008001  0.41715419     0.08600
H218        H  0.49440685  0.67666244  0.40652234     0.06200
H219        H  0.48089125  0.62045465  0.39836204     0.06000
C220        C  0.59760282  0.64045101  0.41354020     0.03000
C221        C  0.60205635  0.65842286  0.42154427    -0.13100
C222        C  0.58869942  0.67175122  0.42187183     0.00500
C223        C  0.57093355  0.66708209  0.41419967    -0.11600
C224        C  0.56627437  0.64918945  0.40668775     0.03000
C225        C  0.57964207  0.63583438  0.40639708    -0.11000
H226        H  0.61579024  0.66195859  0.42787417     0.08600
H227        H  0.56055234  0.67734638  0.41514915     0.06200
H228        H  0.57607236  0.62191821  0.40110693     0.06000
N229        N  0.83478771  0.38499168  0.85051323    -0.27400
N230        N  0.84164230  0.37004270  0.83766690    -0.35200
C231        C  0.83156461  0.36489076  0.81117759     0.01000
C232        C  0.81780082  0.37731229  0.80692824     0.07000
C233        C  0.82026281  0.38978661  0.83252657    -0.06100
H234        H  0.83366767  0.35262069  0.79690735     0.07700
H235        H  0.81145523  0.40085719  0.83907809     0.08900
Cu236      Cu  0.86291585  0.35628290  0.85984679     0.44200
Cu237      Cu  0.84375030  0.39673983  0.89482076     0.42000
Cu238      Cu  0.87444081  0.37063861  0.94539259     0.43900
N239        N  0.88146069  0.34319989  0.89045374    -0.34800
N240        N  0.88493690  0.34782579  0.92193467    -0.29000
C241        C  0.89693725  0.33614017  0.93480568    -0.05100
C242        C  0.90130040  0.32347175  0.91033853     0.07100
C243        C  0.89137315  0.32864770  0.88237920     0.00900
H244        H  0.90226257  0.33697466  0.96009439     0.08600
H245        H  0.89166784  0.32273930  0.85752019     0.07600
N246        N  0.86400301  0.39541503  0.96053697    -0.36200
N247        N  0.85284699  0.40493410  0.94174632    -0.28400
C248        C  0.84907158  0.42052577  0.95754522    -0.03600
C249        C  0.85824642  0.42096269  0.98791223     0.05000
C250        C  0.86771331  0.40480684  0.98876208     0.03100
H251        H  0.84044406  0.43093308  0.94737489     0.08200
H252        H  0.87724230  0.40049778  0.00764565     0.07000
N253        N  0.85122842  0.50129584  0.11914902    -0.27400
N254        N  0.86429465  0.50923873  0.10197844    -0.35200
C255        C  0.86946154  0.49821535  0.07679605     0.01000
C256        C  0.85915006  0.48261920  0.07815894     0.07000
C257        C  0.84788257  0.48497928  0.10552887    -0.06100
H258        H  0.87988655  0.50137904  0.05871110     0.07700
H259        H  0.83753236  0.47578307  0.11414671     0.08900
Cu260      Cu  0.87434248  0.53489725  0.11296873     0.44200
Cu261      Cu  0.83711861  0.51352148  0.15820230     0.42000
Cu262      Cu  0.84862827  0.56002247  0.17422531     0.43900
N263        N  0.88177537  0.56040327  0.13047134    -0.34800
N264        N  0.87225552  0.56949511  0.15288047    -0.29000
C265        C  0.88083137  0.58499235  0.16029593    -0.05100
C266        C  0.89647702  0.58589772  0.14144975     0.07100
C267        C  0.89669323  0.56995545  0.12300521     0.00900
H268        H  0.87613166  0.59478347  0.17850532     0.08600
H269        H  0.90723665  0.56526605  0.10642034     0.07600
N270        N  0.82680632  0.54717337  0.19617107    -0.36200
N271        N  0.82293511  0.52994352  0.19135960    -0.28400
C272        C  0.80849111  0.52561425  0.21013197    -0.03600
C273        C  0.80302746  0.54082884  0.22785433     0.05000
C274        C  0.81486181  0.55430210  0.21783175     0.03100
H275        H  0.80245485  0.51230883  0.21094619     0.08200
H276        H  0.81471933  0.56836796  0.22510130     0.07000
N277        N  0.69789956  0.50168188  0.43467306    -0.27400
N278        N  0.68551417  0.50963180  0.45334538    -0.35200
C279        C  0.68056823  0.49834540  0.47827230     0.01000
C280        C  0.69009879  0.48233432  0.47495491     0.07000
C281        C  0.70104857  0.48508282  0.44708273    -0.06100
H282        H  0.67133374  0.50194998  0.49818680     0.07700
H283        H  0.71095700  0.47585970  0.43701304     0.08900
Cu284      Cu  0.67635123  0.53569864  0.44453465     0.44200
Cu285      Cu  0.71128747  0.51442130  0.39526468     0.42000
Cu286      Cu  0.70103300  0.56159209  0.38185802     0.43900
N287        N  0.66877627  0.56121956  0.42810221    -0.34800
N288        N  0.67772073  0.57057988  0.40517433    -0.29000
C289        C  0.66867146  0.58588028  0.39847366    -0.05100
C290        C  0.65341187  0.58630994  0.41841901     0.07100
C291        C  0.65385846  0.57038770  0.43671941     0.00900
H292        H  0.67274298  0.59582441  0.37999781     0.08600
H293        H  0.64373499  0.56546325  0.45402187     0.07600
N294        N  0.72165645  0.54818895  0.35711620    -0.36200
N295        N  0.72482053  0.53072714  0.36091732    -0.28400
C296        C  0.73815820  0.52583735  0.33994205    -0.03600
C297        C  0.74366143  0.54094155  0.32217375     0.05000
C298        C  0.73306371  0.55492369  0.33392243     0.03100
H299        H  0.74358096  0.51232149  0.33800894     0.08200
H300        H  0.73335212  0.56885851  0.32570533     0.07000
N301        N  0.70391799  0.40482090  0.61100597    -0.27400
N302        N  0.68735688  0.39972459  0.60362711    -0.35200
C303        C  0.68104977  0.41043019  0.57886698     0.01000
C304        C  0.69436269  0.42277662  0.57008808     0.07000
C305        C  0.70851186  0.41893920  0.59157477    -0.06100
H306        H  0.66777551  0.40926473  0.56796422     0.07700
H307        H  0.72113895  0.42609326  0.59367883     0.08900
Cu308      Cu  0.67439838  0.37863380  0.62870806     0.44200
Cu309      Cu  0.71987483  0.39240653  0.64675697     0.42000
Cu310      Cu  0.70065649  0.35696526  0.69638356     0.43900
N311        N  0.66510892  0.35737655  0.65857820    -0.34800
N312        N  0.67455672  0.34964224  0.68283626    -0.29000
C313        C  0.66475260  0.33618912  0.69642714    -0.05100
C314        C  0.64822834  0.33548176  0.68035432     0.07100
C315        C  0.64905434  0.34902324  0.65626463     0.00900
H316        H  0.66960338  0.32721458  0.71586820     0.08600
H317        H  0.63874334  0.35250185  0.63820822     0.07600
N318        N  0.72680322  0.36641544  0.70345300    -0.36200
N319        N  0.73384990  0.37922136  0.68439730    -0.28400
C320        C  0.75062718  0.38279604  0.69495588    -0.03600
C321        C  0.75450454  0.37172475  0.72210989     0.05000
C322        C  0.73895477  0.36158644  0.72694143     0.03100
H323        H  0.75923525  0.39305581  0.68409028     0.08200
H324        H  0.73632039  0.35199177  0.74687632     0.07000
C325        C  0.95122951  0.77765571  0.21676483     0.03000
C326        C  0.94636854  0.76018839  0.20581974    -0.13100
C327        C  0.95962530  0.74729219  0.19886443     0.00500
C328        C  0.97773392  0.75171190  0.20347169    -0.11600
C329        C  0.98286948  0.76877606  0.21531672     0.03000
C330        C  0.96957676  0.78180224  0.22174587    -0.11000
H331        H  0.93234636  0.75676335  0.20199388     0.08600
H332        H  0.98795216  0.74174899  0.19763058     0.06200
H333        H  0.97349013  0.79503185  0.23086425     0.06000
C334        C  0.95107099  0.64146942  0.15273906     0.03000
C335        C  0.94624650  0.65944579  0.16005015    -0.13100
C336        C  0.95947429  0.67299566  0.16141035     0.00500
C337        C  0.97746150  0.66844726  0.15535278    -0.11600
C338        C  0.98242185  0.65061213  0.14836445     0.03000
C339        C  0.96921453  0.63710956  0.14702485    -0.11000
H340        H  0.93227128  0.66288200  0.16429348     0.08600
H341        H  0.98776369  0.67881206  0.15683663     0.06200
H342        H  0.97303496  0.62326630  0.14177837     0.06000
C343        C  0.08997531  0.64171427  0.16004065     0.03000
C344        C  0.09492229  0.66007317  0.16131272    -0.13100
C345        C  0.08201335  0.67356655  0.15596958     0.00500
C346        C  0.06408839  0.66863931  0.15042212    -0.11600
C347        C  0.05887210  0.65048638  0.15007153     0.03000
C348        C  0.07185660  0.63700480  0.15471268    -0.11000
H349        H  0.10871980  0.66383687  0.16661043     0.08600
H350        H  0.05395894  0.67906646  0.14772635     0.06200
H351        H  0.06786320  0.62291471  0.15434060     0.06000
C352        C  0.08979956  0.78049642  0.18875705     0.03000
C353        C  0.07222964  0.78447456  0.19983677    -0.13100
C354        C  0.05909083  0.77076230  0.20113583     0.00500
C355        C  0.06394219  0.75307376  0.19215913    -0.11600
C356        C  0.08144075  0.74899283  0.18190208     0.03000
C357        C  0.09429859  0.76270323  0.17987341    -0.11000
H358        H  0.06879815  0.79817142  0.20693406     0.08600
H359        H  0.05398165  0.74235741  0.19284720     0.06200
H360        H  0.10779839  0.75953587  0.17144712     0.06000
C361        C  0.59057060  0.28360470  0.69838236     0.03000
C362        C  0.57253936  0.28886584  0.69408221    -0.13100
C363        C  0.55861423  0.27648264  0.70019728     0.00500
C364        C  0.56278111  0.25881263  0.71000364    -0.11600
C365        C  0.58067053  0.25333941  0.71410553     0.03000
C366        C  0.59456818  0.26580948  0.70827508    -0.11000
H367        H  0.56938235  0.30251517  0.68621259     0.08600
H368        H  0.55200392  0.24910132  0.71354601     0.06200
H369        H  0.60844588  0.26166271  0.71120875     0.06000
C370        C  0.45122909  0.28098326  0.67439615     0.03000
C371        C  0.44776979  0.26253155  0.66780786    -0.13100
C372        C  0.46183678  0.24985451  0.66797096     0.00500
C373        C  0.47946048  0.25579563  0.67369938    -0.11600
C374        C  0.48325848  0.27406919  0.67892332     0.03000
C375        C  0.46915649  0.28655471  0.68007256    -0.11000
H376        H  0.43426144  0.25800429  0.66216364     0.08600
H377        H  0.49036359  0.24609064  0.67434933     0.06200
H378        H  0.47220970  0.30061502  0.68512818     0.06000
C379        C  0.59120494  0.14499027  0.73149071     0.03000
C380        C  0.59555673  0.16352601  0.73101716    -0.13100
C381        C  0.58187467  0.17652090  0.72876678     0.00500
C382        C  0.56394103  0.17088448  0.72728838    -0.11600
C383        C  0.55934368  0.15255205  0.72838919     0.03000
C384        C  0.57306155  0.13955157  0.72979586    -0.11000
H385        H  0.60948414  0.16778188  0.73237842     0.08600
H386        H  0.55340715  0.18092777  0.72496677     0.06200
H387        H  0.56965075  0.12531044  0.73000587     0.06000
C388        C  0.45425915  0.14135714  0.68320659     0.03000
C389        C  0.45029579  0.15939771  0.67446490    -0.13100
C390        C  0.46324321  0.17301592  0.67820403     0.00500
C391        C  0.48042734  0.16851588  0.68976036    -0.11600
C392        C  0.48469655  0.15068363  0.69838079     0.03000
C393        C  0.47149229  0.13718593  0.69576040    -0.11000
H394        H  0.43712061  0.16289928  0.66487020     0.08600
H395        H  0.49053697  0.17900857  0.69230094     0.06200
H396        H  0.47460638  0.12357955  0.70386771     0.06000
N397        N  0.82210792  0.88492089  0.30223766    -0.27400
N398        N  0.82958547  0.87006275  0.31430497    -0.35200
C399        C  0.82003839  0.86447709  0.34126129     0.01000
C400        C  0.80575909  0.87623317  0.34599901     0.07000
C401        C  0.80762610  0.88908959  0.32095998    -0.06100
H402        H  0.82297687  0.85247923  0.35579763     0.07700
H403        H  0.79905355  0.90064176  0.31655821     0.08900
Cu404      Cu  0.85173533  0.85748741  0.29191559     0.44200
Cu405      Cu  0.83112297  0.89867872  0.25991670     0.42000
Cu406      Cu  0.86376494  0.87555408  0.20952820     0.43900
N407        N  0.87189809  0.84669202  0.26122639    -0.34800
N408        N  0.87560677  0.85288855  0.23078688    -0.29000
C409        C  0.88883297  0.84289543  0.21723249    -0.05100
C410        C  0.89386742  0.82965435  0.24007509     0.07100
C411        C  0.88290173  0.83269624  0.26791844     0.00900
H412        H  0.89448063  0.84524663  0.19250603     0.08600
H413        H  0.88318645  0.82571534  0.29179217     0.07600
N414        N  0.85261928  0.90017130  0.19585577    -0.36200
N415        N  0.84091278  0.90890456  0.21482160    -0.28400
C416        C  0.83696232  0.92479036  0.20014237    -0.03600
C417        C  0.84647984  0.92606832  0.17016710     0.05000
C418        C  0.85639444  0.91023957  0.16853954     0.03100
H419        H  0.82824466  0.93487223  0.21113409     0.08200
H420        H  0.86584141  0.90640308  0.14909499     0.07000
N421        N  0.84178243  0.00824988  0.04227755    -0.27400
N422        N  0.85831597  0.01247685  0.05165414    -0.35200
C423        C  0.86414150  0.99988978  0.07362403     0.01000
C424        C  0.85072808  0.98695757  0.07787912     0.07000
C425        C  0.83677482  0.99286988  0.05761057    -0.06100
H426        H  0.87692642  0.00057744  0.08646791     0.07700
H427        H  0.82373627  0.98658465  0.05453562     0.08900
Cu428      Cu  0.87198063  0.03542310  0.03429350     0.44200
Cu429      Cu  0.82593217  0.02370642  0.01054530     0.42000
Cu430      Cu  0.84616271  0.06341212  0.97628204     0.43900
N431        N  0.88194606  0.05893663  0.01157614    -0.34800
N432        N  0.87234465  0.06905687  0.99089078    -0.29000
C433        C  0.88234743  0.08316746  0.98064059    -0.05100
C434        C  0.89926609  0.08184711  0.99496273     0.07100
C435        C  0.89840987  0.06640421  0.01482496     0.00900
H436        H  0.87743340  0.09380433  0.96444711     0.08600
H437        H  0.90902820  0.06094540  0.03037071     0.07600
N438        N  0.82060961  0.05471989  0.96303379    -0.36200
N439        N  0.81290017  0.04032492  0.97645931    -0.28400
C440        C  0.79689860  0.03756491  0.96152073    -0.03600
C441        C  0.79449396  0.05081245  0.93737029     0.05000
C442        C  0.80985402  0.06135791  0.93881509     0.03100
H443        H  0.78825095  0.02606604  0.96623045     0.08200
H444        H  0.81329675  0.07254214  0.92248020     0.07000
N445        N  0.70212247  0.90283040  0.56732409    -0.27400
N446        N  0.68549911  0.89747850  0.57405198    -0.35200
C447        C  0.67818953  0.90897631  0.59660680     0.01000
C448        C  0.69068791  0.92232230  0.60396673     0.07000
C449        C  0.70572932  0.91783493  0.58522350    -0.06100
H450        H  0.66451130  0.90816752  0.60577784     0.07700
H451        H  0.71826229  0.92524582  0.58394571     0.08900
Cu452      Cu  0.67286328  0.87575444  0.54985864     0.44200
Cu453      Cu  0.71905566  0.89099355  0.53172260     0.42000
Cu454      Cu  0.69883087  0.85629437  0.48176442     0.43900
N455        N  0.66363110  0.85454322  0.51951565    -0.34800
N456        N  0.67314498  0.84783298  0.49430746    -0.29000
C457        C  0.66370086  0.83460538  0.47925763    -0.05100
C458        C  0.64739335  0.83282971  0.49563249     0.07100
C459        C  0.64786630  0.84554848  0.52129589     0.00900
H460        H  0.66855656  0.82656332  0.45840825     0.08600
H461        H  0.63750619  0.84807428  0.53983436     0.07600
N462        N  0.72436422  0.86630256  0.47253700    -0.36200
N463        N  0.73215639  0.87886484  0.49116149    -0.28400
C464        C  0.74827523  0.88295426  0.47752153    -0.03600
C465        C  0.75065115  0.87243230  0.44893402     0.05000
C466        C  0.73516020  0.86215465  0.44653403     0.03100
H467        H  0.75714203  0.89346728  0.48665645     0.08200
H468        H  0.73174592  0.85272346  0.42671571     0.07000
N469        N  0.69444255  0.00622100  0.72552372    -0.27400
N470        N  0.68013889  0.01271789  0.70992226    -0.35200
C471        C  0.67426785  0.00035007  0.68753525     0.01000
C472        C  0.68519338  0.98526174  0.68970201     0.07000
C473        C  0.69787896  0.98949513  0.71388175    -0.06100
H474        H  0.66308252  0.00230822  0.67054016     0.07700
H475        H  0.70920532  0.98130527  0.72147844     0.08900
Cu476      Cu  0.66965478  0.03835576  0.71963052     0.44200
Cu477      Cu  0.70951147  0.02092432  0.76003579     0.42000
Cu478      Cu  0.69373467  0.06599672  0.78070980     0.43900
N479        N  0.66175677  0.06432544  0.73386440    -0.34800
N480        N  0.67058921  0.07445348  0.75576533    -0.29000
C481        C  0.66189246  0.09029035  0.75938955    -0.05100
C482        C  0.64689246  0.09026873  0.73861473     0.07100
C483        C  0.64718442  0.07343481  0.72318400     0.00900
H484        H  0.66613265  0.10102035  0.77611300     0.08600
H485        H  0.63724447  0.06790231  0.70620794     0.07600
N486        N  0.71637186  0.05417614  0.80226185    -0.36200
N487        N  0.72237004  0.03795395  0.79395608    -0.28400
C488        C  0.73715020  0.03426883  0.81220815    -0.03600
C489        C  0.74055353  0.04880471  0.83314507     0.05000
C490        C  0.72704508  0.06111123  0.82642085     0.03100
H491        H  0.74451046  0.02168423  0.81115059     0.08200
H492        H  0.72504343  0.07408395  0.83839842     0.07000
C493        C  0.95781749  0.13362988  0.98490710     0.03000
C494        C  0.95417161  0.15141572  0.97412189    -0.13100
C495        C  0.96827575  0.16379130  0.96923674     0.00500
C496        C  0.98594861  0.15845378  0.97601937    -0.11600
C497        C  0.98982627  0.14075904  0.98599933     0.03000
C498        C  0.97576215  0.12832281  0.99037680    -0.11000
H499        H  0.94046951  0.15546918  0.96883513     0.08600
H500        H  0.99687930  0.16794665  0.97204127     0.06200
H501        H  0.97879889  0.11448165  0.99717925     0.06000
C502        C  0.95719407  0.26903124  0.91780302     0.03000
C503        C  0.95376129  0.25072171  0.92514687    -0.13100
C504        C  0.96789938  0.23811998  0.92594890     0.00500
C505        C  0.98537054  0.24395082  0.91774598    -0.11600
C506        C  0.98883452  0.26203035  0.90940825     0.03000
C507        C  0.97476717  0.27453181  0.90968542    -0.11000
H508        H  0.94015221  0.24637036  0.93057405     0.08600
H509        H  0.99645020  0.23445839  0.91852518     0.06200
H510        H  0.97749347  0.28853241  0.90346831     0.06000
C511        C  0.09452250  0.27411215  0.92226901     0.03000
C512        C  0.07778839  0.27997471  0.90993780    -0.13100
C513        C  0.06454737  0.26733468  0.90120085     0.00500
C514        C  0.06892524  0.24900457  0.90125920    -0.11600
C515        C  0.08456983  0.24260514  0.91713856     0.03000
C516        C  0.09742949  0.25547517  0.92773101    -0.11000
H517        H  0.07485211  0.29428961  0.90846141     0.08600
H518        H  0.05902147  0.23953894  0.89185239     0.06200
H519        H  0.10948994  0.25126919  0.94064253     0.06000
C520        C  0.09334222  0.13412366  0.94524926     0.03000
C521        C  0.09567726  0.15261482  0.93798915    -0.13100
C522        C  0.08322951  0.16542856  0.95014105     0.00500
C523        C  0.06925691  0.15927869  0.97111689    -0.11600
C524        C  0.06527768  0.14085907  0.97399780     0.03000
C525        C  0.07752986  0.12828166  0.96130245    -0.11000
H526        H  0.10706978  0.15682254  0.92292695     0.08600
H527        H  0.06036740  0.16890934  0.98295295     0.06200
H528        H  0.07475651  0.11395912  0.96381928     0.06000
C529        C  0.06914913  0.21392267  0.93301744    -0.09200
C530        C  0.08547510  0.22282413  0.92591764     0.07000
C531        C  0.10136413  0.21227490  0.92578329    -0.03000
C532        C  0.10058829  0.19383154  0.93464922    -0.07500
C533        C  0.08401655  0.18502321  0.94046138     0.06100
C534        C  0.06811974  0.19531535  0.93680964    -0.02500
Br535      Br  0.04436810  0.18518208  0.93102148    -0.02200
H536        H  0.05661843  0.22129124  0.93410061     0.10000
H537        H  0.11303186  0.18633229  0.93614421     0.08000
Br538      Br  0.12416794  0.22136892  0.91068787    -0.02600
C539        C  0.01702278  0.27657633  0.92858196    -0.09200
C540        C  0.00751800  0.26785936  0.90284900     0.07000
C541        C  0.01664768  0.26267418  0.87337453    -0.03000
C542        C  0.03530358  0.26497826  0.87112617    -0.07500
C543        C  0.04518789  0.27200194  0.89837249     0.06100
C544        C  0.03572086  0.27852023  0.92679102    -0.02500
Br545      Br  0.04763845  0.28736437  0.96640547    -0.02200
H546        H  0.01006198  0.28053211  0.95139882     0.10000
H547        H  0.04231860  0.25975628  0.84928308     0.08000
Br548      Br  0.00433519  0.25108477  0.83683435    -0.02600
C549        C  0.01942752  0.14222779  0.01465118    -0.09200
C550        C  0.00889447  0.13540013  0.98824383     0.07000
C551        C  0.01739049  0.12701287  0.96071195    -0.03000
C552        C  0.03615614  0.12701130  0.95849470    -0.07500
C553        C  0.04670004  0.13548355  0.98326184     0.06100
C554        C  0.03822453  0.14219820  0.01246121    -0.02500
Br555      Br  0.05173203  0.15242299  0.04894382    -0.02200
H556        H  0.01299715  0.14866794  0.03598483     0.10000
H557        H  0.04241577  0.12192008  0.93575513     0.08000
Br558      Br  0.00392626  0.11777382  0.92325206    -0.02600
C559        C  0.95672921  0.19527400  0.97553638    -0.09200
C560        C  0.96512927  0.18213921  0.95553544     0.07000
C561        C  0.97252254  0.18726488  0.92428793    -0.03000
C562        C  0.97228779  0.20537791  0.91435386    -0.07500
C563        C  0.96492612  0.21881559  0.93520408     0.06100
C564        C  0.95664718  0.21352164  0.96578193    -0.02500
Br565      Br  0.94684069  0.23063289  0.99710954    -0.02200
H566        H  0.95115951  0.19149066  0.99975147     0.10000
H567        H  0.97848363  0.20909457  0.89063519     0.08000
Br568      Br  0.98365591  0.17005280  0.89472549    -0.02600
C569        C  0.68186965  0.93683703  0.65837914    -0.09200
C570        C  0.68817318  0.93864520  0.62516826     0.07000
C571        C  0.69224809  0.95608904  0.61286844    -0.03000
C572        C  0.69073093  0.97114415  0.63403395    -0.07500
C573        C  0.68519521  0.96922018  0.66755361     0.06100
C574        C  0.68046344  0.95195584  0.67960118    -0.02500
Br575      Br  0.67166271  0.94857665  0.72457796    -0.02200
H576        H  0.67839977  0.92359486  0.66805295     0.10000
H577        H  0.69412866  0.98441654  0.62439506     0.08000
Br578      Br  0.69897488  0.96036125  0.56688262    -0.02600
C579        C  0.92516971  0.09860281  0.01995347    -0.09200
C580        C  0.91455221  0.09474040  0.99156270     0.07000
C581        C  0.91865377  0.10352194  0.96083041    -0.03000
C582        C  0.93261407  0.11623165  0.95941636    -0.07500
C583        C  0.94300469  0.12024306  0.98790712     0.06100
C584        C  0.93925743  0.11119371  0.01835743    -0.02500
Br585      Br  0.95233459  0.11624009  0.05891860    -0.02200
H586        H  0.92226161  0.09209184  0.04377214     0.10000
H587        H  0.93564531  0.12277608  0.93566593     0.08000
Br588      Br  0.90689809  0.09782626  0.91911832    -0.02600
C589        C  0.78577351  0.04964329  0.87719787    -0.09200
C590        C  0.78053732  0.05116512  0.91101760     0.07000
C591        C  0.76212883  0.05246480  0.91897076    -0.03000
C592        C  0.74929673  0.05213139  0.89317699    -0.07500
C593        C  0.75451718  0.05006317  0.85942817     0.06100
C594        C  0.77294084  0.04887194  0.85149659    -0.02500
Br595      Br  0.78129897  0.04677019  0.80596018    -0.02200
H596        H  0.79990467  0.04867171  0.87080479     0.10000
H597        H  0.73516468  0.05312915  0.89953799     0.08000
Br598      Br  0.75392351  0.05527584  0.96447177    -0.02600
C599        C  0.83353621  0.96646523  0.11586020    -0.09200
C600        C  0.85013613  0.97124314  0.10133306     0.07000
C601        C  0.86535985  0.96059426  0.10895637    -0.03000
C602        C  0.86380736  0.94604649  0.13138556    -0.07500
C603        C  0.84726825  0.94153860  0.14635089     0.06100
C604        C  0.83193684  0.95175991  0.13780862    -0.02500
Br605      Br  0.80813144  0.94558882  0.15269451    -0.02200
H606        H  0.82158565  0.97419416  0.11008427     0.10000
H607        H  0.87567894  0.93817554  0.13712435     0.08000
Br608      Br  0.88833672  0.96403463  0.08787616    -0.02600
C609        C  0.79647098  0.87293285  0.40599567    -0.09200
C610        C  0.79155210  0.87527212  0.37213417     0.07000
C611        C  0.77314487  0.87666603  0.36393841    -0.03000
C612        C  0.76014893  0.87572748  0.38936862    -0.07500
C613        C  0.76505641  0.87370474  0.42326535     0.06100
C614        C  0.78343389  0.87234363  0.43153675    -0.02500
Br615      Br  0.79139934  0.86866208  0.47693161    -0.02200
H616        H  0.81054087  0.87173410  0.41265140     0.10000
H617        H  0.74606982  0.87663382  0.38259836     0.08000
Br618      Br  0.76476134  0.87868573  0.31838872    -0.02600
C619        C  0.61046900  0.12170173  0.70440168    -0.09200
C620        C  0.60562513  0.13126624  0.73345621     0.07000
C621        C  0.61468603  0.12769308  0.76380577    -0.03000
C622        C  0.62813908  0.11445827  0.76486236    -0.07500
C623        C  0.63289523  0.10458814  0.73589682     0.06100
C624        C  0.62408777  0.10863261  0.70522459    -0.02500
Br625      Br  0.63092306  0.09809017  0.66296329    -0.02200
H626        H  0.60381651  0.12466266  0.68078012     0.10000
H627        H  0.63468893  0.11167295  0.78864009     0.08000
Br628      Br  0.60872748  0.14022763  0.80459309    -0.02600
C629        C  0.53399419  0.13821329  0.69746595    -0.09200
C630        C  0.54007981  0.14759510  0.72597031     0.07000
C631        C  0.52734938  0.15509105  0.74831905    -0.03000
C632        C  0.50906834  0.15467469  0.74022273    -0.07500
C633        C  0.50312795  0.14670771  0.71018253     0.06100
C634        C  0.51565850  0.13778661  0.68938429    -0.02500
Br635      Br  0.50877031  0.12694841  0.64752253    -0.02200
H636        H  0.54362649  0.13249404  0.67999859     0.10000
H637        H  0.49954133  0.16147477  0.75651151     0.08000
Br638      Br  0.53438030  0.16696432  0.78926550    -0.02600
C639        C  0.44772179  0.22139315  0.68875779    -0.09200
C640        C  0.45848925  0.23015291  0.66466278     0.07000
C641        C  0.46830025  0.21959422  0.64147013    -0.03000
C642        C  0.46870900  0.20079972  0.64485042    -0.07500
C643        C  0.45917481  0.19216274  0.67071859     0.06100
C644        C  0.44797648  0.20251348  0.69187789    -0.02500
Br645      Br  0.43439159  0.19168063  0.72769326    -0.02200
H646        H  0.44010397  0.22929970  0.70674104     0.10000
H647        H  0.47713625  0.19293223  0.62811323     0.08000
Br648      Br  0.48183758  0.23021701  0.60537078    -0.02600
C649        C  0.59342092  0.22355009  0.69769787    -0.09200
C650        C  0.58448535  0.23414406  0.72180315     0.07000
C651        C  0.57712908  0.22569175  0.75049290    -0.03000
C652        C  0.57779799  0.20690223  0.75359107    -0.07500
C653        C  0.58558017  0.19618067  0.72833930     0.06100
C654        C  0.59387490  0.20467109  0.70059935    -0.02500
Br655      Br  0.60393536  0.19107259  0.66406194    -0.02200
H656        H  0.59894117  0.22987031  0.67534840     0.10000
H657        H  0.57133867  0.20052216  0.77499221     0.08000
Br658      Br  0.56534358  0.23910546  0.78548219    -0.02600
C659        C  0.53277384  0.27998334  0.66158577    -0.09200
C660        C  0.53956027  0.28108647  0.69442512     0.07000
C661        C  0.52751778  0.28295575  0.72160752    -0.03000
C662        C  0.50894020  0.28225798  0.71591945    -0.07500
C663        C  0.50220067  0.27960930  0.68332696     0.06100
C664        C  0.51422784  0.27920574  0.65590476    -0.02500
Br665      Br  0.50591565  0.27630367  0.61052309    -0.02200
H666        H  0.54192536  0.27845902  0.64053585     0.10000
H667        H  0.49980263  0.28257894  0.73716939     0.08000
Br668      Br  0.53595458  0.28516826  0.76703072    -0.02600
C669        C  0.09183074  0.69944609  0.19109785    -0.09200
C670        C  0.08638001  0.69295018  0.15951030     0.07000
C671        C  0.08208266  0.70537195  0.13381613    -0.03000
C672        C  0.08182978  0.72387631  0.14083248    -0.07500
C673        C  0.08587725  0.73020720  0.17318389     0.06100
C674        C  0.09151000  0.71796668  0.19810276    -0.02500
Br675      Br  0.09719058  0.72587764  0.24284478    -0.02200
H676        H  0.09504572  0.69003606  0.21109416     0.10000
H677        H  0.07754065  0.73326914  0.12152845     0.08000
Br678      Br  0.07558481  0.69762565  0.08931523    -0.02600
C679        C  0.01080175  0.63935105  0.17294487    -0.09200
C680        C  0.00169919  0.64636891  0.14496709     0.07000
C681        C  0.01161595  0.65234805  0.11688767    -0.03000
C682        C  0.03040397  0.65210297  0.11782439    -0.07500
C683        C  0.03954766  0.64622238  0.14672298     0.06100
C684        C  0.02960555  0.63942471  0.17418449    -0.02500
Br685      Br  0.04089655  0.63264235  0.21572693    -0.02200
H686        H  0.00325906  0.63513951  0.19495078     0.10000
H687        H  0.03791373  0.65756403  0.09674735     0.08000
Br688      Br  0.00005361  0.66224830  0.07788708    -0.02600
C689        C  0.92246791  0.78669008  0.24432729    -0.09200
C690        C  0.93699901  0.79131543  0.22342362     0.07000
C691        C  0.93716329  0.80851244  0.20814229    -0.03000
C692        C  0.92323130  0.82074767  0.21457287    -0.07500
C693        C  0.90861629  0.81618991  0.23551991     0.06100
C694        C  0.90828987  0.79874824  0.25017143    -0.02500
Br695      Br  0.88834259  0.78954894  0.27565387    -0.02200
H696        H  0.92197432  0.77340328  0.25575466     0.10000
H697        H  0.92380598  0.83389549  0.20267910     0.08000
Br698      Br  0.95517927  0.81555219  0.17600389    -0.02600
C699        C  0.01026921  0.78581987  0.19788295    -0.09200
C700        C  0.00232352  0.77277650  0.21883786     0.07000
C701        C  0.01348920  0.76160813  0.23849719    -0.03000
C702        C  0.03213983  0.76248770  0.23469738    -0.07500
C703        C  0.04009817  0.77419218  0.21109948     0.06100
C704        C  0.02900695  0.78656626  0.19372407    -0.02500
Br705      Br  0.03826359  0.80311984  0.16078772    -0.02200
H706        H  0.00182237  0.79446826  0.18262177     0.10000
H707        H  0.04044290  0.75312087  0.24872275     0.08000
Br708      Br  0.00388651  0.74409806  0.26939171    -0.02600
C709        C  0.94912475  0.71593181  0.20973363    -0.09200
C710        C  0.95510847  0.72898827  0.18668040     0.07000
C711        C  0.95987418  0.72362854  0.15387741    -0.03000
C712        C  0.95981518  0.70532310  0.14528301    -0.07500
C713        C  0.95510692  0.69208142  0.16903147     0.06100
C714        C  0.94914593  0.69754164  0.20119536    -0.02500
Br715      Br  0.94311565  0.68042096  0.23564545    -0.02200
H716        H  0.94567629  0.71992344  0.23517834     0.10000
H717        H  0.96442500  0.70131282  0.12049573     0.08000
Br718      Br  0.96775184  0.74079758  0.12077510    -0.02600
C719        C  0.62420914  0.31542235  0.65742075    -0.09200
C720        C  0.63340568  0.32227077  0.68563357     0.07000
C721        C  0.62820644  0.31629164  0.71805328    -0.03000
C722        C  0.61434990  0.30358929  0.72155443    -0.07500
C723        C  0.60528068  0.29679531  0.69335670     0.06100
C724        C  0.61031619  0.30275480  0.66105934    -0.02500
Br725      Br  0.59906855  0.29339672  0.62124046    -0.02200
H726        H  0.62804365  0.31969470  0.63233367     0.10000
H727        H  0.61039328  0.29920343  0.74652216     0.08000
Br728      Br  0.63833791  0.32586003  0.75876814    -0.02600
C729        C  0.70693934  0.45763024  0.50327804    -0.09200
C730        C  0.69055075  0.46664861  0.49840767     0.07000
C731        C  0.67520030  0.46035199  0.51588390    -0.03000
C732        C  0.67675662  0.44607093  0.53890231    -0.07500
C733        C  0.69330802  0.43746160  0.54456556     0.06100
C734        C  0.70840342  0.44308213  0.52556848    -0.02500
Br735      Br  0.73108384  0.43071333  0.52617170    -0.02200
H736        H  0.71882092  0.46190279  0.48964392     0.10000
H737        H  0.66489313  0.44169670  0.55249335     0.08000
Br738      Br  0.65146348  0.46948267  0.50769624    -0.02600
C739        C  0.91456727  0.60764584  0.17523050    -0.09200
C740        C  0.91056425  0.60009994  0.14359668     0.07000
C741        C  0.91992669  0.60649602  0.11499093    -0.03000
C742        C  0.93319963  0.61981258  0.11859651    -0.07500
C743        C  0.93714090  0.62725710  0.15020907     0.06100
C744        C  0.92769384  0.62109126  0.17869144    -0.02500
Br745      Br  0.93271353  0.63011850  0.22297044    -0.02200
H746        H  0.90761354  0.60290350  0.19752430     0.10000
H747        H  0.94023218  0.62469019  0.09647608     0.08000
Br748      Br  0.91421136  0.59889976  0.07005542    -0.02600
C749        C  0.77296338  0.55314303  0.30257352    -0.09200
C750        C  0.75812440  0.54189371  0.29677712     0.07000
C751        C  0.75775497  0.53107862  0.26766851    -0.03000
C752        C  0.77231450  0.53129475  0.24535075    -0.07500
C753        C  0.78754881  0.54208664  0.25151409     0.06100
C754        C  0.78772633  0.55317401  0.28061454    -0.02500
Br755      Br  0.80818611  0.56721002  0.29430500    -0.02200
H756        H  0.77341106  0.56136349  0.32514085     0.10000
H757        H  0.77169313  0.52291646  0.22302236     0.08000
Br758      Br  0.73738961  0.51625950  0.25667517    -0.02600
C759        C  0.92963865  0.31124976  0.93480776    -0.09200
C760        C  0.91490808  0.30878481  0.91305767     0.07000
C761        C  0.91366709  0.29239000  0.89476974    -0.03000
C762        C  0.92743513  0.27956106  0.89704132    -0.07500
C763        C  0.94240754  0.28243610  0.91776982     0.06100
C764        C  0.94318216  0.29823995  0.93751625    -0.02500
Br765      Br  0.96195163  0.30234076  0.96984330    -0.02200
H766        H  0.93080712  0.32346457  0.94964613     0.10000
H767        H  0.92648720  0.26725725  0.88235024     0.08000
Br768      Br  0.89315295  0.28574473  0.86819455    -0.02600
C769        C  0.79423951  0.35894443  0.77816754    -0.09200
C770        C  0.80215108  0.37592233  0.78391279     0.07000
C771        C  0.79465001  0.39124057  0.76819397    -0.03000
C772        C  0.77920682  0.38946300  0.74839911    -0.07500
C773        C  0.77094316  0.37257754  0.74336327     0.06100
C774        C  0.77884131  0.35713339  0.75808885    -0.02500
Br775      Br  0.77016183  0.33308061  0.75009195    -0.02200
H776        H  0.79995562  0.34698658  0.78963923     0.10000
H777        H  0.77358983  0.40147410  0.73696496     0.08000
Br778      Br  0.80547635  0.41477815  0.77070266    -0.02600
C779        C  0.85818961  0.45405225  0.99867623    -0.09200
C780        C  0.85900629  0.43643033  0.01181660     0.07000
C781        C  0.85992429  0.43421452  0.04715234    -0.03000
C782        C  0.86010053  0.44943176  0.06821497    -0.07500
C783        C  0.85945383  0.46698434  0.05489182     0.06100
C784        C  0.85835768  0.46920269  0.01972357    -0.02500
Br785      Br  0.85549268  0.49244475  0.99898428    -0.02200
H786        H  0.85732581  0.45612581  0.97173434     0.10000
H787        H  0.86063508  0.44754299  0.09525063     0.08000
Br788      Br  0.85952586  0.41099392  0.06865912    -0.02600
C789        C  0.61806383  0.62039892  0.44561122    -0.09200
C790        C  0.61162694  0.62637131  0.41438982     0.07000
C791        C  0.61895063  0.61915302  0.38462595    -0.03000
C792        C  0.63261774  0.60620582  0.38645751    -0.07500
C793        C  0.63897546  0.60003919  0.41772029     0.06100
C794        C  0.63155070  0.60727294  0.44752478    -0.02500
Br795      Br  0.64007228  0.60074143  0.49145517    -0.02200
H796        H  0.61260966  0.62605609  0.46861356     0.10000
H797        H  0.63818406  0.60080426  0.36334330     0.08000
Br798      Br  0.61099690  0.62692382  0.34104426    -0.02600
C799        C  0.51893920  0.65043676  0.37269871    -0.09200
C800        C  0.50917338  0.64411417  0.40057910     0.07000
C801        C  0.51854561  0.63716217  0.42855436    -0.03000
C802        C  0.53738534  0.63737029  0.42885952    -0.07500
C803        C  0.54708487  0.64474390  0.40182720     0.06100
C804        C  0.53774736  0.65085590  0.37321261    -0.02500
Br805      Br  0.55015470  0.66107386  0.33535216    -0.02200
H806        H  0.51187823  0.65602930  0.35125753     0.10000
H807        H  0.54444163  0.63301899  0.45128815     0.08000
Br808      Br  0.50625928  0.62952286  0.46861402    -0.02600
C809        C  0.61341759  0.80300613  0.45033020    -0.09200
C810        C  0.60768217  0.79172659  0.47658601     0.07000
C811        C  0.61466357  0.79432634  0.50914220    -0.03000
C812        C  0.62723054  0.80807987  0.51508119    -0.07500
C813        C  0.63327620  0.81919117  0.48874045     0.06100
C814        C  0.62618326  0.81661362  0.45610735    -0.02500
Br815      Br  0.63270518  0.83187930  0.41897280    -0.02200
H816        H  0.60792705  0.80122080  0.42528577     0.10000
H817        H  0.63261109  0.80983339  0.54021237     0.08000
Br818      Br  0.60745315  0.77925407  0.54606276    -0.02600
C819        C  0.59033562  0.71407989  0.47455059    -0.09200
C820        C  0.59177878  0.72738186  0.44952258     0.07000
C821        C  0.59462125  0.72213073  0.41586144    -0.03000
C822        C  0.59502056  0.70376033  0.40741552    -0.07500
C823        C  0.59260548  0.69048785  0.43221581     0.06100
C824        C  0.59076016  0.69572148  0.46611524    -0.02500
Br825      Br  0.58705197  0.67823178  0.50111655    -0.02200
H826        H  0.58782407  0.71799297  0.50041867     0.10000
H827        H  0.59614333  0.69984301  0.38121194     0.08000
Br828      Br  0.59608395  0.73960477  0.38030003    -0.02600
C829        C  0.51587800  0.78165731  0.44018507    -0.09200
C830        C  0.50553893  0.77150866  0.46297374     0.07000
C831        C  0.51417381  0.76266754  0.48989086    -0.03000
C832        C  0.53292123  0.76287661  0.49206144    -0.07500
C833        C  0.54334209  0.77185161  0.46778023     0.06100
C834        C  0.53467864  0.78182194  0.44231255    -0.02500
Br835      Br  0.54790793  0.79398046  0.40753703    -0.02200
H836        H  0.50940129  0.78837780  0.41922709     0.10000
H837        H  0.53945472  0.75524419  0.51184413     0.08000
Br838      Br  0.50097790  0.74947497  0.52344329    -0.02600
C839        C  0.45472113  0.71493885  0.45295880    -0.09200
C840        C  0.45972512  0.72716994  0.42763774     0.07000
C841        C  0.46446963  0.72058321  0.39561965    -0.03000
C842        C  0.46525609  0.70195539  0.38994766    -0.07500
C843        C  0.46136495  0.68965478  0.41588092     0.06100
C844        C  0.45547618  0.69626267  0.44729653    -0.02500
Br845      Br  0.45052254  0.68043481  0.48442323    -0.02200
H846        H  0.45141395  0.71990468  0.47786640     0.10000
H847        H  0.46987169  0.69703350  0.36574491     0.08000
Br848      Br  0.47166378  0.73656428  0.36000474    -0.02600
C849        C  0.12709229  0.09614302  0.95144744    -0.09200
C850        C  0.13125947  0.09293847  0.91749737     0.07000
C851        C  0.12354761  0.10413436  0.89256388    -0.03000
C852        C  0.11162095  0.11791155  0.90197492    -0.07500
C853        C  0.10713319  0.12066418  0.93591156     0.06100
C854        C  0.11524599  0.10984185  0.96076523    -0.02500
Br855      Br  0.11100696  0.11351926  0.00799075    -0.02200
H856        H  0.13315695  0.08798098  0.97100595     0.10000
H857        H  0.10535500  0.12610130  0.88267620     0.08000
Br858      Br  0.12744436  0.10038172  0.84530785    -0.02600
C859        C  0.42864743  0.09798042  0.66254237    -0.09200
C860        C  0.41132983  0.10217909  0.67421227     0.07000
C861        C  0.40838468  0.11923893  0.68921623    -0.03000
C862        C  0.42267419  0.13138854  0.69276171    -0.07500
C863        C  0.43996132  0.12730562  0.68067044     0.06100
C864        C  0.44282103  0.11033979  0.66523509    -0.02500
Br865      Br  0.46511794  0.10358602  0.64451216    -0.02200
H866        H  0.43116736  0.08504529  0.65069665     0.10000
H867        H  0.42013054  0.14435841  0.70447701     0.08000
Br868      Br  0.38505244  0.12784051  0.70227605    -0.02600
C869        C  0.25093980  0.04365291  0.76685425    -0.09200
C870        C  0.25495582  0.04130479  0.80107702     0.07000
C871        C  0.27305547  0.04085469  0.81146371    -0.03000
C872        C  0.28675879  0.04210034  0.78750163    -0.07500
C873        C  0.28273591  0.04376569  0.75314801     0.06100
C874        C  0.26465067  0.04486465  0.74288131    -0.02500
Br875      Br  0.25793855  0.04920256  0.69693919    -0.02200
H876        H  0.23706392  0.04437904  0.75868903     0.10000
H877        H  0.30063701  0.04161448  0.79572051     0.08000
Br878      Br  0.27985706  0.03978593  0.85803237    -0.02600
C879        C  0.42570874  0.81835343  0.45489646    -0.09200
C880        C  0.41935411  0.82165805  0.42210859     0.07000
C881        C  0.42549725  0.81050821  0.39556502    -0.03000
C882        C  0.43716695  0.79614858  0.40235923    -0.07500
C883        C  0.44336523  0.79285122  0.43509198     0.06100
C884        C  0.43764625  0.80417574  0.46149421    -0.02500
Br885      Br  0.44521947  0.80041361  0.50714659    -0.02200
H886        H  0.42118332  0.82666886  0.47567017     0.10000
H887        H  0.44186452  0.78778385  0.38176278     0.08000
Br888      Br  0.42000792  0.81500947  0.34910075    -0.02600
C889        C  0.35825033  0.96867651  0.48864380    -0.09200
C890        C  0.35999788  0.95161680  0.50371908     0.07000
C891        C  0.36009736  0.95024986  0.53908595    -0.03000
C892        C  0.35820379  0.96581963  0.55871749    -0.07500
C893        C  0.35651380  0.98286762  0.54363852     0.06100
C894        C  0.35670858  0.98428580  0.50831523    -0.02500
Br895      Br  0.35371136  0.00703179  0.48587497    -0.02200
H896        H  0.35795355  0.96983333  0.46145202     0.10000
H897        H  0.35789562  0.96460987  0.58590363     0.03200
Br898      Br  0.36138308  0.92740316  0.56177873    -0.02600
C899        C  0.12471896  0.81648809  0.20792784    -0.09200
C900        C  0.13193116  0.81971792  0.17574836     0.07000
C901        C  0.12471219  0.81034742  0.14787715    -0.03000
C902        C  0.11061032  0.79809009  0.15263890    -0.07500
C903        C  0.10349308  0.79483543  0.18479877     0.06100
C904        C  0.11062164  0.80418198  0.21261764    -0.02500
Br905      Br  0.10246818  0.79966683  0.25768099    -0.02200
H906        H  0.13018155  0.82346046  0.22962362     0.10000
H907        H  0.10543269  0.79068441  0.13118173     0.08000
Br908      Br  0.13454878  0.81220031  0.10329313    -0.02600
C909        C  0.27931669  0.87301263  0.25406635    -0.09200
C910        C  0.26207383  0.87234522  0.26845247     0.07000
C911        C  0.26040416  0.87169237  0.30381044    -0.03000
C912        C  0.27583677  0.87211001  0.32397641    -0.07500
C913        C  0.29305779  0.87283496  0.30955004     0.06100
C914        C  0.29474193  0.87312010  0.27423212    -0.02500
Br915      Br  0.31764124  0.87518038  0.25228841    -0.02200
H916        H  0.28079277  0.87365259  0.22694826     0.10000
H917        H  0.27438429  0.87210748  0.35112739     0.08000
Br918      Br  0.23748942  0.87177022  0.32605859    -0.02600
C919        C  0.17694129  0.94327461  0.04334891    -0.09200
C920        C  0.19405663  0.93804021  0.05468063     0.07000
C921        C  0.20930824  0.94678341  0.04101756    -0.03000
C922        C  0.20713940  0.96063122  0.01741089    -0.07500
C923        C  0.19003035  0.96589853  0.00609395     0.06100
C924        C  0.17479120  0.95685457  0.01915503    -0.02500
Br925      Br  0.15076099  0.96098614  0.00335419    -0.02200
H926        H  0.16505016  0.93663584  0.05313930     0.10000
H927        H  0.21905376  0.96720853  0.00759020     0.08000
Br928      Br  0.23356619  0.93961995  0.05063867    -0.02600
C929        C  0.41457953  0.61189864  0.39379368    -0.09200
C930        C  0.41805214  0.59591961  0.41183119     0.07000
C931        C  0.43536881  0.59360921  0.42587367    -0.03000
C932        C  0.44804528  0.60761611  0.42408183    -0.07500
C933        C  0.44438557  0.62379859  0.40685361     0.06100
C934        C  0.42759018  0.62549640  0.39046623    -0.02500
Br935      Br  0.42197507  0.64514313  0.36061673    -0.02200
H936        H  0.40165819  0.61387829  0.38185681     0.10000
H937        H  0.46095685  0.60572378  0.43614461     0.08000
Br938      Br  0.44350467  0.57120053  0.44476720    -0.02600
C939        C  0.40711959  0.30620482  0.69077291    -0.09200
C940        C  0.41045234  0.32286271  0.67486078     0.07000
C941        C  0.42712104  0.32535630  0.65838967    -0.03000
C942        C  0.43968172  0.31130779  0.65752837    -0.07500
C943        C  0.43654277  0.29476486  0.67397966     0.06100
C944        C  0.41995946  0.29234764  0.69090138    -0.02500
Br945      Br  0.41445286  0.27132936  0.71740638    -0.02200
H946        H  0.39453335  0.30403164  0.70390786     0.10000
H947        H  0.45229340  0.31356056  0.64451623     0.08000
Br948      Br  0.43476641  0.34806907  0.63986282    -0.02600
C949        C  0.34812659  0.44908372  0.55581704    -0.09200
C950        C  0.35207163  0.45243733  0.58975241     0.07000
C951        C  0.35561132  0.47032452  0.60011491    -0.03000
C952        C  0.35519777  0.48443981  0.57654080    -0.07500
C953        C  0.35087744  0.48112379  0.54267419     0.06100
C954        C  0.34732450  0.46319651  0.53240399    -0.02500
Br955      Br  0.34238223  0.45687504  0.48645101    -0.02200
H956        H  0.34550160  0.43538489  0.54750438     0.10000
H957        H  0.35810413  0.49809644  0.58475658     0.08000
Br958      Br  0.36199396  0.47606433  0.64568257    -0.02600
C959        C  0.12946014  0.30367432  0.96616066    -0.09200
C960        C  0.13680550  0.31317614  0.93871754     0.07000
C961        C  0.12955015  0.31022468  0.90632698    -0.03000
C962        C  0.11578656  0.29753338  0.90175614    -0.07500
C963        C  0.10890822  0.28757700  0.92893459     0.06100
C964        C  0.11566663  0.29092500  0.96149183    -0.02500
Br965      Br  0.10593781  0.27903897  0.00038005    -0.02200
H966        H  0.13462186  0.30601197  0.99128668     0.10000
H967        H  0.11039972  0.29539494  0.87672346     0.08000
Br968      Br  0.13687957  0.32399181  0.86770026    -0.02600
C969        C  0.28053211  0.38231463  0.86118449    -0.09200
C970        C  0.26424020  0.37457550  0.85026527     0.07000
C971        C  0.26272931  0.36918159  0.81617309    -0.03000
C972        C  0.27729305  0.37154619  0.79415231    -0.07500
C973        C  0.29344569  0.37922843  0.80531274     0.06100
C974        C  0.29503280  0.38462862  0.83907944    -0.02500
Br975      Br  0.31655100  0.39583046  0.85567294    -0.02200
H976        H  0.28202187  0.38663537  0.88708989     0.10000
H977        H  0.27593207  0.36757614  0.76801283     0.08000
Br978      Br  0.24087399  0.35999127  0.79700897    -0.02600
C979        C  0.10119000  0.61508425  0.19192859    -0.09200
C980        C  0.10353900  0.62737671  0.16532861     0.07000
C981        C  0.11850554  0.62544782  0.14377371    -0.03000
C982        C  0.13062639  0.61125587  0.14880122    -0.07500
C983        C  0.12827164  0.59906681  0.17543812     0.06100
C984        C  0.11351101  0.60110676  0.19727342    -0.02500
Br985      Br  0.10941189  0.58482049  0.23407317    -0.02200
H986        H  0.08975525  0.61641716  0.20866536     0.10000
H987        H  0.14199404  0.60976980  0.13195281     0.08000
Br988      Br  0.12261076  0.64128789  0.10626939    -0.02600
C989        C  0.26956241  0.54833628  0.27641975    -0.09200
C990        C  0.25275503  0.54884765  0.29240216     0.07000
C991        C  0.25193578  0.54973952  0.32773014    -0.03000
C992        C  0.26782647  0.54947923  0.34651865    -0.07500
C993        C  0.28470035  0.54852789  0.33065360     0.06100
C994        C  0.28549373  0.54830878  0.29513109    -0.02500
Br995      Br  0.30763440  0.54611743  0.27062148    -0.02200
H996        H  0.27027202  0.54744333  0.24921404     0.10000
H997        H  0.26697352  0.54964725  0.37375075     0.08000
Br998      Br  0.22948759  0.54963139  0.35156509    -0.02600
C999        C  0.20450444  0.45929947  0.09848184    -0.09200
C1000       C  0.18716013  0.46589407  0.10519793     0.07000
C1001       C  0.17226447  0.45656569  0.09159839    -0.03000
C1002       C  0.17498136  0.44138577  0.07105207    -0.07500
C1003       C  0.19236797  0.43513620  0.06353954     0.06100
C1004       C  0.20722847  0.44412512  0.07808725    -0.02500
Br1005     Br  0.23154072  0.43580435  0.07330488    -0.02200
H1006       H  0.21613238  0.46604610  0.10906953     0.10000
H1007       H  0.16338097  0.43454383  0.06057170     0.08000
Br1008     Br  0.14788861  0.46304054  0.10172863    -0.02600
loop_ 
_geom_bond_atom_site_label_1 
_geom_bond_atom_site_label_2 
_geom_bond_distance 
_geom_bond_site_symmetry_2 
_ccdc_geom_bond_type 
N1            N2   1.320       .  A
N1            C5   1.342       .  A
N1           Cu9   2.064       .  S
N2            C3   1.349       .  A
N2           Cu8   2.091       .  S
C3            C4   1.392       .  A
C3            H6   1.081       .  S
C4            C5   1.384       .  A
C4         C1000   1.488       .  S
C5            H7   1.082       .  S
Cu8          N11   2.092       .  S
Cu9          N19   2.064       .  S
Cu10         N12   2.075       .  S
Cu10         N18   2.074       .  S
N11          N12   1.325       .  A
N11          C15   1.347       .  A
N12          C13   1.345       .  A
C13          C14   1.379       .  A
C13          H16   1.082       .  S
C14          C15   1.382       .  A
C14         C983   1.472       .  S
C15          H17   1.082       .  S
N18          N19   1.321       .  A
N18          C22   1.348       .  A
N19          C20   1.342       .  A
C20          C21   1.379       .  A
C20          H23   1.082       .  S
C21          C22   1.385       .  A
C21         C990   1.472       .  S
C22          H24   1.082       .  S
N25          N26   1.321       .  A
N25          C29   1.344       .  A
N25         Cu33   2.074       .  S
N26          C27   1.348       .  A
N26         Cu32   2.087       .  S
C27          C28   1.390       .  A
C27          H30   1.081       .  S
C28          C29   1.386       .  A
C28         C970   1.489       .  S
C29          H31   1.082       .  S
Cu32         N35   2.088       .  S
Cu33         N43   2.075       .  S
Cu34         N36   2.091       .  S
Cu34         N42   2.091   1_556  S
N35          N36   1.324       .  A
N35          C39   1.346       .  A
N36          C37   1.349       .  A
C37          C38   1.386       .  A
C37          H40   1.082       .  S
C38          C39   1.386       .  A
C38         C960   1.486       .  S
C39          H41   1.082       .  S
N42          N43   1.322   1_554  A
N42          C46   1.348       .  A
N43          C44   1.345   1_556  A
C44          C45   1.386       .  A
C44          H47   1.081       .  S
C45          C46   1.390       .  A
C45        C1003   1.488       .  S
C46          H48   1.082       .  S
N49          N50   1.323       .  A
N49          C53   1.346       .  A
N49         Cu57   2.079       .  S
N50          C51   1.347       .  A
N50         Cu56   2.077       .  S
C51          C52   1.382       .  A
C51          H54   1.082       .  S
C52          C53   1.382       .  A
C52         C973   1.474       .  S
C53          H55   1.082       .  S
Cu56         N59   2.077       .  S
Cu57         N67   2.079       .  S
Cu58         N60   2.087       .  S
Cu58         N66   2.087       .  S
N59          N60   1.322       .  A
N59          C63   1.345       .  A
N60          C61   1.347       .  A
C61          C62   1.390       .  A
C61          H64   1.080       .  S
C62          C63   1.387       .  A
C62         C940   1.491       .  S
C63          H65   1.082       .  S
N66          N67   1.323       .  A
N66          C70   1.347       .  A
N67          C68   1.347       .  A
C68          C69   1.384       .  A
C68          H71   1.082       .  S
C69          C70   1.386       .  A
C69         C950   1.480       .  S
C70          H72   1.082       .  S
N73          N74   1.322       .  A
N73          C77   1.344       .  A
N73         Cu81   2.071       .  S
N74          C75   1.349       .  A
N74         Cu80   2.091       .  S
C75          C76   1.387       .  A
C75          H78   1.082       .  S
C76          C77   1.384       .  A
C76         C953   1.483       .  S
C77          H79   1.082       .  S
Cu80         N83   2.091       .  S
Cu81         N91   2.071       .  S
Cu82         N84   2.077       .  S
Cu82         N90   2.076       .  S
N83          N84   1.322       .  A
N83          C87   1.347       .  A
N84          C85   1.345       .  A
C85          C86   1.389       .  A
C85          H88   1.082       .  S
C86          C87   1.391       .  A
C86         C930   1.494       .  S
C87          H89   1.080       .  S
N90          N91   1.322       .  A
N90          C94   1.346       .  A
N91          C92   1.343       .  A
C92          C93   1.384       .  A
C92          H95   1.082       .  S
C93          C94   1.386       .  A
C93         C993   1.480       .  S
C94          H96   1.081       .  S
N97          N98   1.322       .  A
N97         C101   1.344       .  A
N97        Cu105   2.075       .  S
N98          C99   1.347       .  A
N98        Cu104   2.079       .  S
C99         C100   1.386       .  A
C99         H102   1.082       .  S
C100        C101   1.383       .  A
C100        C910   1.479       .  S
C101        H103   1.082       .  S
Cu104       N107   2.079       .  S
Cu105       N115   2.075       .  S
Cu106       N108   2.073       .  S
Cu106       N114   2.072       .  S
N107        N108   1.322       .  A
N107        C111   1.345       .  A
N108        C109   1.345       .  A
C109        C110   1.385       .  A
C109        H112   1.081       .  S
C110        C111   1.385       .  A
C110        C900   1.481       .  S
C111        H113   1.082       .  S
N114        N115   1.321       .  A
N114        C118   1.344       .  A
N115        C116   1.345       .  A
C116        C117   1.388       .  A
C116        H119   1.080       .  S
C117        C118   1.387       .  A
C117        C920   1.487       .  S
C118        H120   1.082       .  S
N121        N122   1.321       .  A
N121        C125   1.343       .  A
N121       Cu129   2.065       .  S
N122        C123   1.348       .  A
N122       Cu128   2.083       .  S
C123        C124   1.387       .  A
C123        H126   1.082       .  S
C124        C125   1.381       .  A
C124        C913   1.477       .  S
C125        H127   1.082       .  S
Cu128       N131   2.084       .  S
Cu129       N139   2.065       .  S
Cu130       N132   2.080       .  S
Cu130       N138   2.079       .  S
N131        N132   1.323       .  A
N131        C135   1.345       .  A
N132        C133   1.346       .  A
C133        C134   1.387       .  A
C133        H136   1.082       .  S
C134        C135   1.387       .  A
C134        C880   1.487       .  S
C135        H137   1.081       .  S
N138        N139   1.322       .  A
N138        C142   1.347       .  A
N139        C140   1.343       .  A
C140        C141   1.380       .  A
C140        H143   1.082       .  S
C141        C142   1.385       .  A
C141        C890   1.473       .  S
C142        H144   1.082       .  S
N145        N146   1.321       .  A
N145        C149   1.344       .  A
N145       Cu153   2.067       .  S
N146        C147   1.343       .  A
N146       Cu152   2.061       .  S
C147        C148   1.381       .  A
C147        H150   1.082       .  S
C148        C149   1.383       .  A
C148        C873   1.471       .  S
C149        H151   1.082       .  S
Cu152       N155   2.062       .  S
Cu153       N163   2.067       .  S
Cu154       N156   2.080       .  S
Cu154       N162   2.080       .  S
N155        N156   1.321       .  A
N155        C159   1.343       .  A
N156        C157   1.345       .  A
C157        C158   1.388       .  A
C157        H160   1.082       .  S
C158        C159   1.384       .  A
C158        C860   1.484       .  S
C159        H161   1.081       .  S
N162        N163   1.323       .  A
N162        C166   1.347       .  A
N163        C164   1.343       .  A
C164        C165   1.380   1_545  A
C164        H167   1.082   1_545  S
C165        C166   1.383   1_565  A
C165        C893   1.471       .  S
C166        H168   1.082       .  S
N169        N170   1.320   1_565  A
N169        C173   1.343       .  A
N169       Cu177   2.070   1_565  S
N170        C171   1.346   1_545  A
N170       Cu176   2.075       .  S
C171        C172   1.389       .  A
C171        H174   1.080       .  S
C172        C173   1.387       .  A
C172        C923   1.488   1_556  S
C173        H175   1.082       .  S
Cu176       N179   2.075       .  S
Cu177       N187   2.070       .  S
Cu178       N180   2.067       .  S
Cu178       N186   2.067       .  S
N179        N180   1.321       .  A
N179        C183   1.342       .  A
N180        C181   1.346       .  A
C181        C182   1.385       .  A
C181        H184   1.081       .  S
C182        C183   1.385       .  A
C182        C850   1.481       .  S
C183        H185   1.082       .  S
N186        N187   1.322       .  A
N186        C190   1.344       .  A
N187        C188   1.344       .  A
C188        C189   1.382       .  A
C188        H191   1.082       .  S
C189        C190   1.381       .  A
C189        C870   1.472       .  S
C190        H192   1.082       .  S
C193        C194   1.409       .  A
C193        C198   1.408       .  A
C193        C883   1.480       .  S
C194        C195   1.402       .  A
C194        H199   1.084       .  S
C195        C196   1.398       .  A
C195        C840   1.475       .  S
C196        C197   1.400       .  A
C196        H200   1.085       .  S
C197        C198   1.403       .  A
C197        C830   1.479       .  S
C198        H201   1.084       .  S
C202        C203   1.406       .  A
C202        C207   1.408       .  A
C202        C810   1.477       .  S
C203        C204   1.403       .  A
C203        H208   1.084       .  S
C204        C205   1.400       .  A
C204        C833   1.478       .  S
C205        C206   1.399       .  A
C205        H209   1.085       .  S
C206        C207   1.403       .  A
C206        C820   1.476       .  S
C207        H210   1.084       .  S
C211        C212   1.411       .  A
C211        C216   1.414       .  A
C211        C933   1.496       .  S
C212        C213   1.403       .  A
C212        H217   1.082       .  S
C213        C214   1.399       .  A
C213        C843   1.480       .  S
C214        C215   1.398       .  A
C214        H218   1.085       .  S
C215        C216   1.405       .  A
C215        C800   1.480       .  S
C216        H219   1.083       .  S
C220        C221   1.406       .  A
C220        C225   1.407       .  A
C220        C790   1.476       .  S
C221        C222   1.401       .  A
C221        H226   1.084       .  S
C222        C223   1.399       .  A
C222        C823   1.475       .  S
C223        C224   1.400       .  A
C223        H227   1.085       .  S
C224        C225   1.403       .  A
C224        C803   1.477       .  S
C225        H228   1.084       .  S
N229        N230   1.321       .  A
N229        C233   1.344       .  A
N229       Cu237   2.073       .  S
N230        C231   1.347       .  A
N230       Cu236   2.080       .  S
C231        C232   1.388       .  A
C231        H234   1.082       .  S
C232        C233   1.385       .  A
C232        C770   1.484       .  S
C233        H235   1.082       .  S
Cu236       N239   2.080       .  S
Cu237       N247   2.073       .  S
Cu238       N240   2.081       .  S
Cu238       N246   2.081       .  S
N239        N240   1.322       .  A
N239        C243   1.345       .  A
N240        C241   1.345       .  A
C241        C242   1.389       .  A
C241        H244   1.082       .  S
C242        C243   1.388       .  A
C242        C760   1.491       .  S
C243        H245   1.080       .  S
N246        N247   1.321       .  A
N246        C250   1.347       .  A
N247        C248   1.343       .  A
C248        C249   1.387       .  A
C248        H251   1.082       .  S
C249        C250   1.389       .  A
C249        C780   1.488   1_556  S
C250        H252   1.081   1_556  S
N253        N254   1.324       .  A
N253        C257   1.346       .  A
N253       Cu261   2.080       .  S
N254        C255   1.347       .  A
N254       Cu260   2.086       .  S
C255        C256   1.386       .  A
C255        H258   1.082       .  S
C256        C257   1.383       .  A
C256        C783   1.481       .  S
C257        H259   1.082       .  S
Cu260       N263   2.085       .  S
Cu261       N271   2.080       .  S
Cu262       N264   2.072       .  S
Cu262       N270   2.071       .  S
N263        N264   1.322       .  A
N263        C267   1.347       .  A
N264        C265   1.344       .  A
C265        C266   1.385       .  A
C265        H268   1.082       .  S
C266        C267   1.389       .  A
C266        C740   1.485       .  S
C267        H269   1.081       .  S
N270        N271   1.321       .  A
N270        C274   1.345       .  A
N271        C272   1.345       .  A
C272        C273   1.389       .  A
C272        H275   1.082       .  S
C273        C274   1.387       .  A
C273        C753   1.488       .  S
C274        H276   1.080       .  S
N277        N278   1.321       .  A
N277        C281   1.345       .  A
N277       Cu285   2.079       .  S
N278        C279   1.346       .  A
N278       Cu284   2.077       .  S
C279        C280   1.388       .  A
C279        H282   1.081       .  S
C280        C281   1.388       .  A
C280        C730   1.489       .  S
C281        H283   1.082       .  S
Cu284       N287   2.077       .  S
Cu285       N295   2.079       .  S
Cu286       N288   2.075       .  S
Cu286       N294   2.075       .  S
N287        N288   1.322       .  A
N287        C291   1.346       .  A
N288        C289   1.345       .  A
C289        C290   1.384       .  A
C289        H292   1.082       .  S
C290        C291   1.385       .  A
C290        C793   1.480       .  S
C291        H293   1.082       .  S
N294        N295   1.323       .  A
N294        C298   1.347       .  A
N295        C296   1.345       .  A
C296        C297   1.383       .  A
C296        H299   1.082       .  S
C297        C298   1.383       .  A
C297        C750   1.476       .  S
C298        H300   1.082       .  S
N301        N302   1.321       .  A
N301        C305   1.343       .  A
N301       Cu309   2.068       .  S
N302        C303   1.348       .  A
N302       Cu308   2.086       .  S
C303        C304   1.390       .  A
C303        H306   1.082       .  S
C304        C305   1.385       .  A
C304        C733   1.488       .  S
C305        H307   1.081       .  S
Cu308       N311   2.087       .  S
Cu309       N319   2.067       .  S
Cu310       N312   2.086       .  S
Cu310       N318   2.085       .  S
N311        N312   1.324       .  A
N311        C315   1.347       .  A
N312        C313   1.346       .  A
C313        C314   1.386       .  A
C313        H316   1.081       .  S
C314        C315   1.387       .  A
C314        C720   1.487       .  S
C315        H317   1.082       .  S
N318        N319   1.320       .  A
N318        C322   1.348       .  A
N319        C320   1.343       .  A
C320        C321   1.385       .  A
C320        H323   1.082       .  S
C321        C322   1.391       .  A
C321        C773   1.488       .  S
C322        H324   1.081       .  S
C325        C326   1.410       .  A
C325        C330   1.412       .  A
C325        C690   1.488       .  S
C326        C327   1.401       .  A
C326        H331   1.084       .  S
C327        C328   1.398       .  A
C327        C710   1.477       .  S
C328        C329   1.400       .  A
C328        H332   1.085       .  S
C329        C330   1.405       .  A
C329        C700   1.483   1_655  S
C330        H333   1.083       .  S
C334        C335   1.409       .  A
C334        C339   1.406       .  A
C334        C743   1.479       .  S
C335        C336   1.405       .  A
C335        H340   1.084       .  S
C336        C337   1.401       .  A
C336        C713   1.481       .  S
C337        C338   1.399       .  A
C337        H341   1.085       .  S
C338        C339   1.401       .  A
C338        C680   1.474   1_655  S
C339        H342   1.084       .  S
C343        C344   1.408       .  A
C343        C348   1.408       .  A
C343        C980   1.481       .  S
C344        C345   1.403       .  A
C344        H349   1.084       .  S
C345        C346   1.399       .  A
C345        C670   1.477       .  S
C346        C347   1.398       .  A
C346        H350   1.085       .  S
C347        C348   1.402       .  A
C347        C683   1.477       .  S
C348        H351   1.084       .  S
C352        C353   1.410       .  A
C352        C357   1.404       .  A
C352        C903   1.478       .  S
C353        C354   1.408       .  A
C353        H358   1.083       .  S
C354        C355   1.404       .  A
C354        C703   1.489       .  S
C355        C356   1.397       .  A
C355        H359   1.085       .  S
C356        C357   1.395       .  A
C356        C673   1.471       .  S
C357        H360   1.084       .  S
C361        C362   1.408       .  A
C361        C366   1.407       .  A
C361        C723   1.478       .  S
C362        C363   1.403       .  A
C362        H367   1.084       .  S
C363        C364   1.400       .  A
C363        C660   1.476       .  S
C364        C365   1.401       .  A
C364        H368   1.085       .  S
C365        C366   1.404       .  A
C365        C650   1.481       .  S
C366        H369   1.084       .  S
C370        C371   1.414       .  A
C370        C375   1.413       .  A
C370        C943   1.496       .  S
C371        C372   1.407       .  A
C371        H376   1.082       .  S
C372        C373   1.401       .  A
C372        C640   1.485       .  S
C373        C374   1.397       .  A
C373        H377   1.085       .  S
C374        C375   1.400       .  A
C374        C663   1.477       .  S
C375        H378   1.083       .  S
C379        C380   1.409       .  A
C379        C384   1.409       .  A
C379        C620   1.481       .  S
C380        C381   1.404       .  A
C380        H385   1.084       .  S
C381        C382   1.398       .  A
C381        C653   1.480       .  S
C382        C383   1.399       .  A
C382        H386   1.085       .  S
C383        C384   1.405       .  A
C383        C630   1.482       .  S
C384        H387   1.084       .  S
C388        C389   1.411       .  A
C388        C393   1.411       .  A
C388        C863   1.489       .  S
C389        C390   1.401       .  A
C389        H394   1.084       .  S
C390        C391   1.399       .  A
C390        C643   1.480       .  S
C391        C392   1.401       .  A
C391        H395   1.085       .  S
C392        C393   1.403       .  A
C392        C633   1.479       .  S
C393        H396   1.083       .  S
N397        N398   1.323       .  A
N397        C401   1.345       .  A
N397       Cu405   2.075       .  S
N398        C399   1.349       .  A
N398       Cu404   2.091       .  S
C399        C400   1.387       .  A
C399        H402   1.082       .  S
C400        C401   1.383       .  A
C400        C610   1.482       .  S
C401        H403   1.082       .  S
Cu404       N407   2.091       .  S
Cu405       N415   2.075       .  S
Cu406       N408   2.076       .  S
Cu406       N414   2.076       .  S
N407        N408   1.322       .  A
N407        C411   1.348       .  A
N408        C409   1.344       .  A
C409        C410   1.388       .  A
C409        H412   1.082       .  S
C410        C411   1.392       .  A
C410        C693   1.494       .  S
C411        H413   1.080       .  S
N414        N415   1.321       .  A
N414        C418   1.345       .  A
N415        C416   1.345       .  A
C416        C417   1.388       .  A
C416        H419   1.081       .  S
C417        C418   1.387       .  A
C417        C603   1.486       .  S
C418        H420   1.082       .  S
N421        N422   1.322       .  A
N421        C425   1.343   1_545  A
N421       Cu429   2.072       .  S
N422        C423   1.349   1_545  A
N422       Cu428   2.094       .  S
C423        C424   1.391       .  A
C423        H426   1.081   1_565  S
C424        C425   1.386       .  A
C424        C600   1.491       .  S
C425        H427   1.082       .  S
Cu428       N431   2.094       .  S
Cu429       N439   2.072   1_554  S
Cu430       N432   2.074       .  S
Cu430       N438   2.074       .  S
N431        N432   1.323   1_554  A
N431        C435   1.349       .  A
N432        C433   1.344       .  A
C433        C434   1.385       .  A
C433        H436   1.081       .  S
C434        C435   1.390   1_556  A
C434        C580   1.489       .  S
C435        H437   1.082       .  S
N438        N439   1.321       .  A
N438        C442   1.345       .  A
N439        C440   1.346       .  A
C440        C441   1.384       .  A
C440        H443   1.082       .  S
C441        C442   1.384       .  A
C441        C590   1.475       .  S
C442        H444   1.082       .  S
N445        N446   1.325       .  A
N445        C449   1.345       .  A
N445       Cu453   2.086       .  S
N446        C447   1.350       .  A
N446       Cu452   2.094       .  S
C447        C448   1.386       .  A
C447        H450   1.082       .  S
C448        C449   1.384       .  A
C448        C570   1.484       .  S
C449        H451   1.082       .  S
Cu452       N455   2.094       .  S
Cu453       N463   2.086       .  S
Cu454       N456   2.070       .  S
Cu454       N462   2.070       .  S
N455        N456   1.323       .  A
N455        C459   1.349       .  A
N456        C457   1.344       .  A
C457        C458   1.382       .  A
C457        H460   1.082       .  S
C458        C459   1.388       .  A
C458        C813   1.481       .  S
C459        H461   1.082       .  S
N462        N463   1.321       .  A
N462        C466   1.343       .  A
N463        C464   1.349       .  A
C464        C465   1.388       .  A
C464        H467   1.082       .  S
C465        C466   1.383       .  A
C465        C613   1.481       .  S
C466        H468   1.082       .  S
N469        N470   1.323       .  A
N469        C473   1.346   1_545  A
N469       Cu477   2.078       .  S
N470        C471   1.348       .  A
N470       Cu476   2.088       .  S
C471        C472   1.385   1_545  A
C471        H474   1.082       .  S
C472        C473   1.382       .  A
C472        C573   1.477       .  S
C473        H475   1.082       .  S
Cu476       N479   2.088       .  S
Cu477       N487   2.077       .  S
Cu478       N480   2.084       .  S
Cu478       N486   2.084       .  S
N479        N480   1.322       .  A
N479        C483   1.346       .  A
N480        C481   1.347       .  A
C481        C482   1.388       .  A
C481        H484   1.082       .  S
C482        C483   1.389       .  A
C482        C623   1.491       .  S
C483        H485   1.081       .  S
N486        N487   1.323       .  A
N486        C490   1.347       .  A
N487        C488   1.346       .  A
C488        C489   1.383       .  A
C488        H491   1.082       .  S
C489        C490   1.384       .  A
C489        C593   1.476       .  S
C490        H492   1.082       .  S
C493        C494   1.411       .  A
C493        C498   1.409       .  A
C493        C583   1.485       .  S
C494        C495   1.405       .  A
C494        H499   1.084       .  S
C495        C496   1.400       .  A
C495        C560   1.482       .  S
C496        C497   1.399       .  A
C496        H500   1.085       .  S
C497        C498   1.403       .  A
C497        C550   1.476   1_655  S
C498        H501   1.084       .  S
C502        C503   1.409       .  A
C502        C507   1.405       .  A
C502        C763   1.482       .  S
C503        C504   1.407       .  A
C503        H508   1.083       .  S
C504        C505   1.406       .  A
C504        C563   1.491       .  S
C505        C506   1.402       .  A
C505        H509   1.084       .  S
C506        C507   1.398       .  A
C506        C540   1.477   1_655  S
C507        H510   1.084       .  S
C511        C512   1.407       .  A
C511        C516   1.413       .  A
C511        C963   1.485       .  S
C512        C513   1.401       .  A
C512        H517   1.084       .  S
C513        C514   1.396       .  A
C513        C543   1.486       .  S
C514        C515   1.407       .  A
C514        H518   1.082       .  S
C515        C516   1.413       .  A
C515        C530   1.507       .  S
C516        H519   1.080       .  S
C520        C521   1.409       .  A
C520        C525   1.405       .  A
C520        C853   1.478       .  S
C521        C522   1.411       .  A
C521        H526   1.082       .  S
C522        C523   1.406       .  A
C522        C533   1.501       .  S
C523        C524   1.399       .  A
C523        H527   1.080       .  S
C524        C525   1.398       .  A
C524        C553   1.483       .  S
C525        H528   1.084       .  S
C529        C530   1.409       .  A
C529        C534   1.387       .  A
C529        H536   1.082       .  S
C530        C531   1.418       .  A
C531        C532   1.411       .  A
C531       Br538   1.919       .  S
C532        C533   1.412       .  A
C532        H537   1.082       .  S
C533        C534   1.415       .  A
C534       Br535   1.932       .  S
C539        C540   1.400       .  A
C539        C544   1.400       .  A
C539        H546   1.084       .  S
C540        C541   1.406       .  A
C541        C542   1.401       .  A
C541       Br548   1.918       .  S
C542        C543   1.408       .  A
C542        H547   1.083       .  S
C543        C544   1.415       .  A
C544       Br545   1.921       .  S
C549        C550   1.403   1_554  A
C549        C554   1.401       .  A
C549        H556   1.083       .  S
C550        C551   1.407       .  A
C551        C552   1.398       .  A
C551       Br558   1.919       .  S
C552        C553   1.405       .  A
C552        H557   1.084       .  S
C553        C554   1.410   1_556  A
C554       Br555   1.919       .  S
C559        C560   1.403       .  A
C559        C564   1.405       .  A
C559        H566   1.083       .  S
C560        C561   1.409       .  A
C561        C562   1.398       .  A
C561       Br568   1.921       .  S
C562        C563   1.406       .  A
C562        H567   1.084       .  S
C563        C564   1.416       .  A
C564       Br565   1.920       .  S
C569        C570   1.406       .  A
C569        C574   1.405       .  A
C569        H576   1.083       .  S
C570        C571   1.413       .  A
C571        C572   1.400       .  A
C571       Br578   1.919       .  S
C572        C573   1.400       .  A
C572        H577   1.084       .  S
C573        C574   1.408       .  A
C574       Br575   1.918       .  S
C579        C580   1.406   1_554  A
C579        C584   1.402       .  A
C579        H586   1.083       .  S
C580        C581   1.416       .  A
C581        C582   1.401       .  A
C581       Br588   1.920       .  S
C582        C583   1.402       .  A
C582        H587   1.084       .  S
C583        C584   1.410   1_556  A
C584       Br585   1.919       .  S
C589        C590   1.403       .  A
C589        C594   1.399       .  A
C589        H596   1.084       .  S
C590        C591   1.408       .  A
C591        C592   1.401       .  A
C591       Br598   1.918       .  S
C592        C593   1.404       .  A
C592        H597   1.083       .  S
C593        C594   1.409       .  A
C594       Br595   1.918       .  S
C599        C600   1.407       .  A
C599        C604   1.399       .  A
C599        H606   1.083       .  S
C600        C601   1.414       .  A
C601        C602   1.402       .  A
C601       Br608   1.919       .  S
C602        C603   1.405       .  A
C602        H607   1.083       .  S
C603        C604   1.411       .  A
C604       Br605   1.921       .  S
C609        C610   1.405       .  A
C609        C614   1.403       .  A
C609        H616   1.083       .  S
C610        C611   1.412       .  A
C611        C612   1.399       .  A
C611       Br618   1.920       .  S
C612        C613   1.403       .  A
C612        H617   1.084       .  S
C613        C614   1.410       .  A
C614       Br615   1.918       .  S
C619        C620   1.401       .  A
C619        C624   1.402       .  A
C619        H626   1.084       .  S
C620        C621   1.407       .  A
C621        C622   1.402       .  A
C621       Br628   1.918       .  S
C622        C623   1.408       .  A
C622        H627   1.083       .  S
C623        C624   1.416       .  A
C624       Br625   1.919       .  S
C629        C630   1.403       .  A
C629        C634   1.402       .  A
C629        H636   1.083       .  S
C630        C631   1.412       .  A
C631        C632   1.398       .  A
C631       Br638   1.921       .  S
C632        C633   1.402       .  A
C632        H637   1.084       .  S
C633        C634   1.410       .  A
C634       Br635   1.916       .  S
C639        C640   1.405       .  A
C639        C644   1.403       .  A
C639        H646   1.083       .  S
C640        C641   1.411       .  A
C641        C642   1.398       .  A
C641       Br648   1.919       .  S
C642        C643   1.401       .  A
C642        H647   1.084       .  S
C643        C644   1.410       .  A
C644       Br645   1.919       .  S
C649        C650   1.405       .  A
C649        C654   1.402       .  A
C649        H656   1.083       .  S
C650        C651   1.409       .  A
C651        C652   1.397       .  A
C651       Br658   1.920       .  S
C652        C653   1.404       .  A
C652        H657   1.084       .  S
C653        C654   1.409       .  A
C654       Br655   1.918       .  S
C659        C660   1.401       .  A
C659        C664   1.399       .  A
C659        H666   1.084       .  S
C660        C661   1.409       .  A
C661        C662   1.401       .  A
C661       Br668   1.917       .  S
C662        C663   1.402       .  A
C662        H667   1.083       .  S
C663        C664   1.409       .  A
C664       Br665   1.918       .  S
C669        C670   1.403       .  A
C669        C674   1.399       .  A
C669        H676   1.083       .  S
C670        C671   1.411       .  A
C671        C672   1.398       .  A
C671       Br678   1.920       .  S
C672        C673   1.400       .  A
C672        H677   1.084       .  S
C673        C674   1.406       .  A
C674       Br675   1.918       .  S
C679        C680   1.402       .  A
C679        C684   1.400       .  A
C679        H686   1.084       .  S
C680        C681   1.407       .  A
C681        C682   1.398       .  A
C681       Br688   1.918       .  S
C682        C683   1.404       .  A
C682        H687   1.084       .  S
C683        C684   1.409       .  A
C684       Br685   1.919       .  S
C689        C690   1.404       .  A
C689        C694   1.402       .  A
C689        H696   1.084       .  S
C690        C691   1.410       .  A
C691        C692   1.401       .  A
C691       Br698   1.921       .  S
C692        C693   1.409       .  A
C692        H697   1.082       .  S
C693        C694   1.416       .  A
C694       Br695   1.919       .  S
C699        C700   1.404       .  A
C699        C704   1.404       .  A
C699        H706   1.084       .  S
C700        C701   1.409       .  A
C701        C702   1.397       .  A
C701       Br708   1.921       .  S
C702        C703   1.406       .  A
C702        H707   1.084       .  S
C703        C704   1.414       .  A
C704       Br705   1.919       .  S
C709        C710   1.403       .  A
C709        C714   1.403       .  A
C709        H716   1.083       .  S
C710        C711   1.407       .  A
C711        C712   1.397       .  A
C711       Br718   1.919       .  S
C712        C713   1.404       .  A
C712        H717   1.084       .  S
C713        C714   1.411       .  A
C714       Br715   1.917       .  S
C719        C720   1.407       .  A
C719        C724   1.401       .  A
C719        H726   1.083       .  S
C720        C721   1.415       .  A
C721        C722   1.401       .  A
C721       Br728   1.919       .  S
C722        C723   1.401       .  A
C722        H727   1.084       .  S
C723        C724   1.407       .  A
C724       Br725   1.918       .  S
C729        C730   1.404       .  A
C729        C734   1.398       .  A
C729        H736   1.083       .  S
C730        C731   1.414       .  A
C731        C732   1.402       .  A
C731       Br738   1.920       .  S
C732        C733   1.406       .  A
C732        H737   1.083       .  S
C733        C734   1.414       .  A
C734       Br735   1.921       .  S
C739        C740   1.407       .  A
C739        C744   1.400       .  A
C739        H746   1.083       .  S
C740        C741   1.413       .  A
C741        C742   1.401       .  A
C741       Br748   1.919       .  S
C742        C743   1.402       .  A
C742        H747   1.084       .  S
C743        C744   1.407       .  A
C744       Br745   1.918       .  S
C749        C750   1.400       .  A
C749        C754   1.402       .  A
C749        H756   1.084       .  S
C750        C751   1.406       .  A
C751        C752   1.399       .  A
C751       Br758   1.919       .  S
C752        C753   1.407       .  A
C752        H757   1.083       .  S
C753        C754   1.417       .  A
C754       Br755   1.920       .  S
C759        C760   1.407       .  A
C759        C764   1.399       .  A
C759        H766   1.082       .  S
C760        C761   1.417       .  A
C761        C762   1.401       .  A
C761       Br768   1.919       .  S
C762        C763   1.401       .  A
C762        H767   1.084       .  S
C763        C764   1.409       .  A
C764       Br765   1.921       .  S
C769        C770   1.405       .  A
C769        C774   1.402       .  A
C769        H776   1.083       .  S
C770        C771   1.410       .  A
C771        C772   1.398       .  A
C771       Br778   1.920       .  S
C772        C773   1.406       .  A
C772        H777   1.083       .  S
C773        C774   1.413       .  A
C774       Br775   1.919       .  S
C779        C780   1.406   1_556  A
C779        C784   1.398   1_556  A
C779        H786   1.083       .  S
C780        C781   1.415       .  A
C781        C782   1.403       .  A
C781       Br788   1.919       .  S
C782        C783   1.404       .  A
C782        H787   1.084       .  S
C783        C784   1.409       .  A
C784       Br785   1.919   1_554  S
C789        C790   1.401       .  A
C789        C794   1.400       .  A
C789        H796   1.084       .  S
C790        C791   1.407       .  A
C791        C792   1.400       .  A
C791       Br798   1.918       .  S
C792        C793   1.405       .  A
C792        H797   1.083       .  S
C793        C794   1.412       .  A
C794       Br795   1.919       .  S
C799        C800   1.404       .  A
C799        C804   1.399       .  A
C799        H806   1.083       .  S
C800        C801   1.410       .  A
C801        C802   1.401       .  A
C801       Br808   1.919       .  S
C802        C803   1.403       .  A
C802        H807   1.084       .  S
C803        C804   1.408       .  A
C804       Br805   1.918       .  S
C809        C810   1.401       .  A
C809        C814   1.402       .  A
C809        H816   1.084       .  S
C810        C811   1.407       .  A
C811        C812   1.401       .  A
C811       Br818   1.918       .  S
C812        C813   1.404       .  A
C812        H817   1.083       .  S
C813        C814   1.412       .  A
C814       Br815   1.919       .  S
C819        C820   1.403       .  A
C819        C824   1.400       .  A
C819        H826   1.083       .  S
C820        C821   1.408       .  A
C821        C822   1.401       .  A
C821       Br828   1.918       .  S
C822        C823   1.402       .  A
C822        H827   1.083       .  S
C823        C824   1.408       .  A
C824       Br825   1.919       .  S
C829        C830   1.404       .  A
C829        C834   1.401       .  A
C829        H836   1.083       .  S
C830        C831   1.409       .  A
C831        C832   1.397       .  A
C831       Br838   1.920       .  S
C832        C833   1.403       .  A
C832        H837   1.084       .  S
C833        C834   1.409       .  A
C834       Br835   1.918       .  S
C839        C840   1.403       .  A
C839        C844   1.402       .  A
C839        H846   1.083       .  S
C840        C841   1.407       .  A
C841        C842   1.398       .  A
C841       Br848   1.919       .  S
C842        C843   1.404       .  A
C842        H847   1.084       .  S
C843        C844   1.410       .  A
C844       Br845   1.918       .  S
C849        C850   1.403       .  A
C849        C854   1.394       .  A
C849        H856   1.083       .  S
C850        C851   1.414       .  A
C851        C852   1.403       .  A
C851       Br858   1.919       .  S
C852        C853   1.403       .  A
C852        H857   1.083       .  S
C853        C854   1.408       .  A
C854       Br855   1.921   1_556  S
C859        C860   1.404       .  A
C859        C864   1.399       .  A
C859        H866   1.083       .  S
C860        C861   1.413       .  A
C861        C862   1.398       .  A
C861       Br868   1.921       .  S
C862        C863   1.406       .  A
C862        H867   1.084       .  S
C863        C864   1.414       .  A
C864       Br865   1.918       .  S
C869        C870   1.403       .  A
C869        C874   1.397       .  A
C869        H876   1.084       .  S
C870        C871   1.409       .  A
C871        C872   1.397       .  A
C871       Br878   1.920       .  S
C872        C873   1.403       .  A
C872        H877   1.084       .  S
C873        C874   1.408       .  A
C874       Br875   1.919       .  S
C879        C880   1.407       .  A
C879        C884   1.401       .  A
C879        H886   1.083       .  S
C880        C881   1.415       .  A
C881        C882   1.400       .  A
C881       Br888   1.920       .  S
C882        C883   1.401       .  A
C882        H887   1.084       .  S
C883        C884   1.408       .  A
C884       Br885   1.920       .  S
C889        C890   1.404       .  A
C889        C894   1.399       .  A
C889        H896   1.084       .  S
C890        C891   1.408       .  A
C891        C892   1.398       .  A
C891       Br898   1.919       .  S
C892        C893   1.403       .  A
C892        H897   1.084       .  S
C893        C894   1.407       .  A
C894       Br895   1.918   1_565  S
C899        C900   1.406       .  A
C899        C904   1.400       .  A
C899        H906   1.083       .  S
C900        C901   1.412       .  A
C901        C902   1.398       .  A
C901       Br908   1.920       .  S
C902        C903   1.403       .  A
C902        H907   1.084       .  S
C903        C904   1.407       .  A
C904       Br905   1.918       .  S
C909        C910   1.404       .  A
C909        C914   1.400       .  A
C909        H916   1.083       .  S
C910        C911   1.410       .  A
C911        C912   1.401       .  A
C911       Br918   1.919       .  S
C912        C913   1.404       .  A
C912        H917   1.084       .  S
C913        C914   1.408       .  A
C914       Br915   1.918       .  S
C919        C920   1.406       .  A
C919        C924   1.400       .  A
C919        H926   1.083       .  S
C920        C921   1.413       .  A
C921        C922   1.399       .  A
C921       Br928   1.920       .  S
C922        C923   1.406       .  A
C922        H927   1.083       .  S
C923        C924   1.414       .  A
C924       Br925   1.920       .  S
C929        C930   1.407       .  A
C929        C934   1.401       .  A
C929        H936   1.082       .  S
C930        C931   1.415       .  A
C931        C932   1.402       .  A
C931       Br938   1.919       .  S
C932        C933   1.406       .  A
C932        H937   1.083       .  S
C933        C934   1.415       .  A
C934       Br935   1.923       .  S
C939        C940   1.407       .  A
C939        C944   1.403       .  A
C939        H946   1.083       .  S
C940        C941   1.413       .  A
C941        C942   1.399       .  A
C941       Br948   1.920       .  S
C942        C943   1.407       .  A
C942        H947   1.083       .  S
C943        C944   1.415       .  A
C944       Br945   1.922       .  S
C949        C950   1.402       .  A
C949        C954   1.400       .  A
C949        H956   1.084       .  S
C950        C951   1.411       .  A
C951        C952   1.403       .  A
C951       Br958   1.919       .  S
C952        C953   1.405       .  A
C952        H957   1.083       .  S
C953        C954   1.413       .  A
C954       Br955   1.920       .  S
C959        C960   1.407       .  A
C959        C964   1.405       .  A
C959        H966   1.083       .  S
C960        C961   1.412       .  A
C961        C962   1.400       .  A
C961       Br968   1.920       .  S
C962        C963   1.403       .  A
C962        H967   1.084       .  S
C963        C964   1.409       .  A
C964       Br965   1.918   1_556  S
C969        C970   1.408       .  A
C969        C974   1.400       .  A
C969        H976   1.083       .  S
C970        C971   1.416       .  A
C971        C972   1.402       .  A
C971       Br978   1.919       .  S
C972        C973   1.401       .  A
C972        H977   1.084       .  S
C973        C974   1.404       .  A
C974       Br975   1.918       .  S
C979        C980   1.405       .  A
C979        C984   1.400       .  A
C979        H986   1.084       .  S
C980        C981   1.411       .  A
C981        C982   1.400       .  A
C981       Br988   1.919       .  S
C982        C983   1.401       .  A
C982        H987   1.084       .  S
C983        C984   1.407       .  A
C984       Br985   1.918       .  S
C989        C990   1.402       .  A
C989        C994   1.399       .  A
C989        H996   1.084       .  S
C990        C991   1.406       .  A
C991        C992   1.399       .  A
C991       Br998   1.919       .  S
C992        C993   1.406       .  A
C992        H997   1.083       .  S
C993        C994   1.412       .  A
C994       Br995   1.919       .  S
C999       C1000   1.405       .  A
C999       C1004   1.399       .  A
C999       H1006   1.083       .  S
C1000      C1001   1.412       .  A
C1001      C1002   1.403       .  A
C1001     Br1008   1.918       .  S
C1002      C1003   1.406       .  A
C1002      H1007   1.083       .  S
C1003      C1004   1.413       .  A
C1004     Br1005   1.921       .  S
