geometry optimzed in LAMMPS
_audit_creation_date              2020-11-30 
_audit_creation_method            'lammps2cif' 
_symmetry_space_group_name_H-M    'P1' 
_symmetry_Int_Tables_number       1 
_symmetry_cell_setting            triclinic 
loop_ 
_symmetry_equiv_pos_as_xyz 
  x,y,z 
_cell_length_a                    38.65942723 
_cell_length_b                    38.06254621555501 
_cell_length_c                    39.80978538543937 
_cell_angle_alpha                 90.25693621726403 
_cell_angle_beta                  89.67070785234803 
_cell_angle_gamma                 92.16908757421446 
loop_ 
_atom_site_label 
_atom_site_type_symbol 
_atom_site_fract_x 
_atom_site_fract_y 
_atom_site_fract_z 
_atom_site_charge 
O1          O  0.47799171  0.03766360  0.53542254    -0.74500
O2          O  0.47534080  0.96487934  0.46838931    -0.74500
O3          O  0.47527093  0.96638468  0.53739193    -0.74600
O4          O  0.47848724  0.03612220  0.46720986    -0.74600
O5          O  0.53603222  0.03556399  0.46713380    -0.74500
O6          O  0.53280556  0.96656455  0.53729410    -0.74500
O7          O  0.53288429  0.96461256  0.46845756    -0.74500
O8          O  0.53557663  0.03789334  0.53526342    -0.74600
Ni9        Ni  0.47472997  0.00115276  0.50213630     1.25400
Ni10       Ni  0.53632925  0.00102722  0.50208978     1.25400
C11         C  0.50713267  0.05003165  0.54628113     0.87700
C12         C  0.50370305  0.95355428  0.45641653     0.87600
C13         C  0.50365201  0.95549830  0.54953597     0.87700
C14         C  0.50789043  0.04728549  0.45548534     0.87800
O15         O  0.98155446  0.45796206  0.47287416    -0.74500
O16         O  0.03980929  0.54112597  0.47235373    -0.74500
O17         O  0.05008543  0.47114741  0.47227191    -0.74600
O18         O  0.97119730  0.52739533  0.47290925    -0.74600
O19         O  0.97088441  0.52752514  0.52887128    -0.74500
O20         O  0.05034909  0.47128406  0.52823529    -0.74500
O21         O  0.03957901  0.54148638  0.52832641    -0.74500
O22         O  0.98157091  0.45784211  0.52881149    -0.74600
Ni23       Ni  0.01075847  0.49944156  0.47063937     1.25400
Ni24       Ni  0.01072523  0.49959219  0.53060867     1.25400
C25         C  0.97186987  0.44412657  0.50079472     0.87700
C26         C  0.04854774  0.55559713  0.50028632     0.87600
C27         C  0.06240535  0.46073875  0.50006893     0.87700
C28         C  0.95789197  0.53667515  0.50087793     0.87800
O29         O  0.55546164  0.47966990  0.03048715    -0.74500
O30         O  0.48363273  0.47670079  0.96489228    -0.74500
O31         O  0.55329026  0.47995863  0.96287535    -0.74600
O32         O  0.48563380  0.47658950  0.03287566    -0.74600
O33         O  0.48538690  0.53514500  0.03329980    -0.74500
O34         O  0.55292504  0.53848967  0.96341711    -0.74500
O35         O  0.48325438  0.53519397  0.96533797    -0.74500
O36         O  0.55501155  0.53822192  0.03127907    -0.74600
Ni37       Ni  0.51945302  0.47613230  0.99780411     1.25400
Ni38       Ni  0.51907633  0.53885168  0.99836772     1.25400
C39         C  0.56720655  0.50938393  0.04160620     0.87700
C40         C  0.47201368  0.50546693  0.95375069     0.87600
C41         C  0.56418045  0.50980231  0.95149164     0.87700
C42         C  0.47467383  0.50537801  0.04491149     0.87800
O43         O  0.03802074  0.47080960  0.03803027    -0.74500
O44         O  0.03746961  0.54190569  0.96987929    -0.74500
O45         O  0.03905274  0.54188521  0.03847506    -0.74600
O46         O  0.03617708  0.47074399  0.96971050    -0.74600
O47         O  0.97859686  0.46995163  0.97108753    -0.74500
O48         O  0.98148280  0.54052734  0.04032963    -0.74500
O49         O  0.97990656  0.54106284  0.97150125    -0.74500
O50         O  0.98039125  0.46923463  0.03930019    -0.74600
Ni51       Ni  0.03969597  0.50644204  0.00397250     1.25400
Ni52       Ni  0.97805462  0.50522849  0.00564818     1.25400
C53         C  0.00931015  0.45821250  0.04993459     0.87700
C54         C  0.00867117  0.55272530  0.95879040     0.87600
C55         C  0.01075533  0.55248718  0.05132000     0.87700
C56         C  0.00686477  0.45875266  0.95879850     0.87800
O57         O  0.53198442  0.04550460  0.96807877    -0.74500
O58         O  0.46889812  0.96528844  0.96880697    -0.74500
O59         O  0.46226660  0.03598361  0.96791603    -0.74600
O60         O  0.53845257  0.97511088  0.96879829    -0.74600
O61         O  0.53785931  0.97599742  0.02478158    -0.74500
O62         O  0.46180554  0.03659952  0.02385746    -0.74500
O63         O  0.46866069  0.96613052  0.02475848    -0.74500
O64         O  0.53127560  0.04624033  0.02400060    -0.74600
Ni65       Ni  0.50033714  0.00543469  0.96637265     1.25400
Ni66       Ni  0.49981085  0.00629190  0.02631277     1.25400
C67         C  0.54224849  0.05902341  0.99602870     0.87700
C68         C  0.45887381  0.95206755  0.99694722     0.87600
C69         C  0.44980078  0.04681244  0.99580501     0.87700
C70         C  0.55075096  0.96556663  0.99696423     0.87800
O71         O  0.76583299  0.75568281  0.84133014    -0.80900
O72         O  0.78789936  0.71955054  0.68556371    -0.65600
O73         O  0.78068340  0.76054536  0.77340625    -1.12200
C74         C  0.67044316  0.79393160  0.74054653     1.06000
O75         O  0.75096994  0.75288687  0.65842981    -0.78800
O76         O  0.75828283  0.80914431  0.70010626    -0.66400
Ni77       Ni  0.79339083  0.73117902  0.80972403     1.34900
C78         C  0.76042972  0.82689853  0.72713700     0.84700
O79         O  0.83383764  0.73148604  0.73604934    -0.79400
O80         O  0.82475820  0.70369109  0.78390921    -0.89600
C81         C  0.77404195  0.73002017  0.65856319     0.84300
O82         O  0.75585096  0.69981764  0.79895347    -0.67800
O83         O  0.68911771  0.80264598  0.71537167    -0.87100
C84         C  0.75472964  0.68181671  0.77200251     0.85100
C85         C  0.84497766  0.71333545  0.76025929     1.06700
H86         H  0.72201904  0.72619526  0.72614488     0.38500
O87         O  0.73581883  0.74788447  0.72657948    -1.09800
O88         O  0.74518321  0.81693982  0.75433529    -0.66400
Ni89       Ni  0.73198366  0.76948414  0.76996619     1.26300
O90         O  0.77101953  0.69162027  0.74530692    -0.66700
O91         O  0.68284710  0.77669532  0.76470592    -0.79000
C92         C  0.74336592  0.77908335  0.84132431     0.84500
O93         O  0.72918559  0.78943460  0.81442417    -0.66100
Ni94       Ni  0.72201480  0.77626419  0.68990181     1.27400
Ni95       Ni  0.78466448  0.73908648  0.73007443     1.26100
H96         H  0.79459803  0.78215634  0.77418645     0.39000
O97         O  0.25723788  0.66039827  0.74354015    -0.80900
O98         O  0.21275217  0.81793287  0.73097619    -0.65600
O99         O  0.26065358  0.73214719  0.72516463    -1.12200
C100        C  0.29230645  0.76281500  0.83757422     1.06000
O101        O  0.25855426  0.84597605  0.75242428    -0.78800
O102        O  0.31581266  0.81384715  0.77138988    -0.66400
Ni103      Ni  0.23658705  0.69006961  0.71056373     1.34900
C104        C  0.33222111  0.78891680  0.75828401     0.84700
O105        O  0.22224455  0.77236690  0.68089576    -0.79400
O106        O  0.21401567  0.71408559  0.67470815    -0.89600
C107        C  0.22949609  0.84638653  0.73773181     0.84300
O108        O  0.19760731  0.69438195  0.73952860    -0.67800
O109        O  0.28381336  0.79391416  0.83041659    -0.87100
C110        C  0.17978327  0.72075924  0.74667253     0.85100
C111        C  0.21199098  0.74549706  0.66410878     1.06700
H112        H  0.23006124  0.76969719  0.78725344     0.38500
O113        O  0.24984276  0.77523004  0.77303317    -1.09800
O114        O  0.31958477  0.75756914  0.75597891    -0.66400
Ni115      Ni  0.27662368  0.73413602  0.77070187     1.26300
O116        O  0.19049475  0.75230996  0.74061960    -0.66700
O117        O  0.29149414  0.73724323  0.81674051    -0.79000
C118        C  0.28565165  0.66217508  0.75958897     0.84500
O119        O  0.30057214  0.69144437  0.76693974    -0.66100
Ni120      Ni  0.27062482  0.81778086  0.79041869     1.27400
Ni121      Ni  0.23517346  0.77429095  0.72729790     1.26100
H122        H  0.28004657  0.73619047  0.71006865     0.39000
O123        O  0.70928757  0.22902762  0.81662733    -0.80900
O124        O  0.76072178  0.23966654  0.67243198    -0.65600
O125        O  0.75910567  0.22550987  0.76718355    -1.12200
C126        C  0.75852492  0.35071842  0.76739048     1.06000
O127        O  0.80524694  0.27515869  0.68292741    -0.78800
O128        O  0.82716868  0.30613587  0.73871963    -0.66400
Ni129      Ni  0.72649307  0.19363930  0.78730713     1.34900
C130        C  0.83158239  0.29111490  0.76657442     0.84700
O131        O  0.76055266  0.18176103  0.71083393    -0.79400
O132        O  0.74170963  0.15625340  0.75879777    -0.89600
C133        C  0.78530145  0.25977928  0.66198746     0.84300
O134        O  0.68743219  0.20099486  0.75980692    -0.67800
O135        O  0.77174512  0.34922035  0.73789691    -0.87100
C136        C  0.68326263  0.21618406  0.73200022     0.85100
C137        C  0.75426072  0.15472114  0.72904849     1.06700
H138        H  0.73352496  0.28772117  0.72525279     0.38500
O139        O  0.75616250  0.27977471  0.73105804    -1.09800
O140        O  0.80666836  0.27731758  0.78368926    -0.66400
Ni141      Ni  0.75673899  0.27434652  0.77825797     1.26300
O142        O  0.70844569  0.22893973  0.71464500    -0.66700
O143        O  0.75362659  0.32389305  0.78639897    -0.79000
C144        C  0.72723344  0.24838387  0.83645001     0.84500
O145        O  0.75361311  0.26591199  0.82572560    -0.66100
Ni146      Ni  0.78825633  0.31169102  0.71056598     1.27400
Ni147      Ni  0.75830822  0.23099647  0.71976516     1.26100
H148        H  0.78173076  0.21759648  0.77306049     0.39000
O149        O  0.32079996  0.20415577  0.72579179    -0.80900
O150        O  0.17634290  0.26043474  0.74487370    -0.65600
O151        O  0.27317618  0.25576729  0.72397080    -1.12200
C152        C  0.28355391  0.25842193  0.84295426     1.06000
O153        O  0.19071180  0.30523298  0.77743979    -0.78800
O154        O  0.25307994  0.32600292  0.79867729    -0.66400
Ni155      Ni  0.29010923  0.22241707  0.69325775     1.34900
C156        C  0.28165669  0.32937390  0.78311268     0.84700
O157        O  0.21306504  0.25952997  0.68610141    -0.79400
O158        O  0.25997735  0.23912321  0.65932407    -0.89600
C159        C  0.16752349  0.28635945  0.76291084     0.84300
O160        O  0.25920758  0.18378194  0.70274435    -0.67800
O161        O  0.25363478  0.27161448  0.84304149    -0.87100
C162        C  0.23084852  0.18024929  0.71860482     0.85100
C163        C  0.23023651  0.25270534  0.65935200     1.06700
H164        H  0.23240839  0.23094375  0.78730931     0.38500
O165        O  0.23944053  0.25376836  0.77854625    -1.09800
O166        O  0.29702602  0.30350809  0.77021641    -0.66400
Ni167      Ni  0.28805995  0.25309339  0.76956247     1.26300
O168        O  0.21560324  0.20599317  0.73191310    -0.66700
O169        O  0.30009588  0.25063857  0.81613408    -0.79000
C170        C  0.34472614  0.22304205  0.73905050     0.84500
O171        O  0.33647500  0.24902337  0.75731854    -0.66100
Ni172      Ni  0.22261227  0.28733758  0.80928764     1.27400
Ni173      Ni  0.22469416  0.25648218  0.73284938     1.26100
H174        H  0.28018108  0.27858787  0.71520660     0.39000
O175        O  0.75512629  0.74628316  0.33894471    -0.80900
O176        O  0.73109183  0.79510846  0.18821112    -0.65600
O177        O  0.73629913  0.74494477  0.27170262    -1.12200
C178        C  0.85365646  0.72996990  0.23446157     1.06000
O179        O  0.75746636  0.75289648  0.16170233    -0.78800
O180        O  0.78677958  0.69938465  0.19082066    -0.66400
Ni181      Ni  0.72303561  0.76927181  0.31136342     1.34900
C182        C  0.77372821  0.68069538  0.21432346     0.84700
O183        O  0.68383381  0.77761441  0.23645574    -0.79400
O184        O  0.68740666  0.79483755  0.28988597    -0.89600
C185        C  0.73997116  0.78034509  0.16089946     0.84300
O186        O  0.75669242  0.80566166  0.30362761    -0.67800
O187        O  0.84374915  0.74129322  0.20620053    -0.87100
C188        C  0.75790861  0.82579061  0.27837552     0.85100
C189        C  0.67070490  0.79127818  0.26261342     1.06700
H190        H  0.79407183  0.78507881  0.23225620     0.38500
O191        O  0.78141816  0.76327464  0.22750240    -1.09800
O192        O  0.77106095  0.69126096  0.24464543    -0.66400
Ni193      Ni  0.78480356  0.73481648  0.26690015     1.26300
O194        O  0.74389967  0.81723814  0.25040896    -0.66700
O195        O  0.83345160  0.72501116  0.25981925    -0.79000
C196        C  0.77583835  0.72134289  0.33714354     0.84500
O197        O  0.78645866  0.70928019  0.30899433    -0.66100
Ni198      Ni  0.79976667  0.74766436  0.18592224     1.27400
Ni199      Ni  0.73279881  0.77113764  0.23079576     1.26100
H200        H  0.72211826  0.72356207  0.26994243     0.39000
O201        O  0.26497977  0.84834223  0.25272655    -0.80900
O202        O  0.30283454  0.69307640  0.23350659    -0.65600
O203        O  0.25372915  0.77806496  0.23174947    -1.12200
C204        C  0.21722833  0.74932705  0.34034138     1.06000
O205        O  0.26209065  0.66252120  0.26178399    -0.78800
O206        O  0.20407604  0.69892475  0.26187501    -0.66400
Ni207      Ni  0.27376998  0.82031520  0.21340500     1.34900
C208        C  0.18605535  0.72559443  0.25716554     0.84700
O209        O  0.29277061  0.74005550  0.18523055    -0.79400
O210        O  0.28325117  0.79640116  0.17216969    -0.89600
C211        C  0.28852919  0.66397655  0.24261615     0.84300
O212        O  0.32002941  0.81521596  0.22880433    -0.67800
O213        O  0.21585374  0.71839380  0.32790962    -0.87100
C214        C  0.33637105  0.79057520  0.24218230     0.85100
C215        C  0.29170992  0.76539162  0.16436348     1.06700
H216        H  0.28588825  0.73761101  0.29278717     0.38500
O217        O  0.26589378  0.73449009  0.27851239    -1.09800
O218        O  0.19603615  0.75640277  0.26672430    -0.66400
Ni219      Ni  0.24150623  0.77737438  0.27814960     1.26300
O220        O  0.32326787  0.75949546  0.24551069    -0.66700
O221        O  0.23086774  0.77558221  0.32506046    -0.79000
C222        C  0.23615271  0.84950984  0.26806032     0.84500
O223        O  0.21963696  0.82135800  0.27608060    -0.66100
Ni224      Ni  0.24024064  0.69341967  0.29319770     1.27400
Ni225      Ni  0.27975009  0.73653989  0.23203866     1.26100
H226        H  0.23317934  0.77280678  0.21864515     0.39000
O227        O  0.80584159  0.28183407  0.31379899    -0.80900
O228        O  0.75911786  0.26066969  0.16949888    -0.65600
O229        O  0.75835140  0.28122514  0.26350607    -1.12200
C230        C  0.75724945  0.15614597  0.27175720     1.06000
O231        O  0.71440207  0.22557380  0.18100732    -0.78800
O232        O  0.69071813  0.20049126  0.23846581    -0.66400
Ni233      Ni  0.78957445  0.31519001  0.28252143     1.34900
C234        C  0.68629704  0.21645436  0.26598479     0.84700
O235        O  0.75791790  0.32134587  0.20485981    -0.79400
O236        O  0.77476203  0.35032743  0.25181635    -0.89600
C237        C  0.73434428  0.24041425  0.15962765     0.84300
O238        O  0.82947570  0.30668383  0.25612486    -0.67800
O239        O  0.74465643  0.15597704  0.24210513    -0.87100
C240        C  0.83498584  0.28953286  0.22942806     0.85100
C241        C  0.76321752  0.34967641  0.22177243     1.06700
H242        H  0.78520294  0.21617487  0.22525763     0.38500
O243        O  0.76251004  0.22455826  0.23052714    -1.09800
O244        O  0.71115300  0.23031407  0.28284601    -0.66400
Ni245      Ni  0.76098304  0.23314398  0.27751071     1.26300
O246        O  0.81064069  0.27490086  0.21227660    -0.66700
O247        O  0.76379796  0.18427227  0.28870303    -0.79000
C248        C  0.78594450  0.26624691  0.33475732     0.84500
O249        O  0.76235534  0.24484616  0.32445990    -0.66100
Ni250      Ni  0.73024461  0.19153851  0.21171978     1.27400
Ni251      Ni  0.76046662  0.27258074  0.21648248     1.26100
H252        H  0.73541641  0.28912365  0.26846838     0.39000
O253        O  0.96474399  0.97394152  0.46621391    -0.74500
O254        O  0.03496892  0.97779432  0.53294425    -0.74500
O255        O  0.96536211  0.97383191  0.53416172    -0.74600
O256        O  0.03440780  0.97791531  0.46510521    -0.74600
O257        O  0.03324421  0.03635247  0.46524200    -0.74500
O258        O  0.96447296  0.03228487  0.53497013    -0.74500
O259        O  0.03420730  0.03627360  0.53330945    -0.74500
O260        O  0.96326189  0.03242579  0.46693187    -0.74600
Ni261      Ni  0.99990842  0.97381604  0.49957316     1.25400
Ni262      Ni  0.99877025  0.03645132  0.50008686     1.25400
C263        C  0.95249713  0.00251671  0.45544015     0.87700
C264        C  0.04587722  0.00759524  0.54452372     0.87600
C265        C  0.95374510  0.00231407  0.54630467     0.87700
C266        C  0.04515401  0.00774203  0.45357958     0.87800
C267        C  0.18497383  0.98416084  0.30985721     0.80200
N268        N  0.19781526  0.01565350  0.29820961    -0.78100
C269        C  0.18500434  0.04614552  0.31015199     0.82600
N270        N  0.16009893  0.04498484  0.33429963    -0.78100
C271        C  0.14754758  0.01388192  0.34654479     0.82700
N272        N  0.16001782  0.98366569  0.33402375    -0.79800
O273        O  0.19666105  0.30453239  0.22332221    -0.80900
O274        O  0.34423535  0.25033200  0.24274014    -0.65600
O275        O  0.24698883  0.25468754  0.22361999    -1.12200
C276        C  0.23887915  0.26130850  0.34317319     1.06000
O277        O  0.32927671  0.20888953  0.27865064    -0.78800
O278        O  0.26854191  0.19146985  0.30488940    -0.66400
Ni279      Ni  0.22948000  0.28636701  0.19201187     1.34900
C280        C  0.24126140  0.18557125  0.28808448     0.84700
O281        O  0.30695097  0.24795627  0.18489474    -0.79400
O282        O  0.26122683  0.27034542  0.15857716    -0.89600
C283        C  0.35255845  0.22524085  0.26181843     0.84300
O284        O  0.25885894  0.32595406  0.20197167    -0.67800
O285        O  0.26984612  0.25069371  0.34335862    -0.87100
C286        C  0.28839586  0.32988518  0.21530301     0.85100
C287        C  0.29059632  0.25602194  0.15830059     1.06700
H288        H  0.28813490  0.28458548  0.28401488     0.38500
O289        O  0.28149519  0.26090176  0.27719021    -1.09800
O290        O  0.22586896  0.20941634  0.27237894    -0.66400
Ni291      Ni  0.23278468  0.25982312  0.26943471     1.26300
O292        O  0.30500285  0.30448785  0.22719673    -0.66700
O293        O  0.22118485  0.26481925  0.31633938    -0.79000
C294        C  0.17423661  0.28579631  0.23916154     0.84500
O295        O  0.18410430  0.26137332  0.25822954    -0.66100
Ni296      Ni  0.29938234  0.23094514  0.31012303     1.27400
Ni297      Ni  0.29569815  0.25429310  0.23151148     1.26100
H298        H  0.23985216  0.23144205  0.21588397     0.39000
C299        C  0.97661750  0.30888999  0.18653417     0.80200
N300        N  0.00627784  0.30128325  0.20311021    -0.78100
C301        C  0.03710653  0.31720731  0.19380849     0.82600
N302        N  0.03768927  0.34098394  0.16827543    -0.78100
C303        C  0.00833910  0.34878300  0.15172762     0.82700
N304        N  0.97808634  0.33247148  0.16107009    -0.79800
C305        C  0.33771446  0.21287158  0.96910572     0.80200
N306        N  0.35358510  0.18170669  0.96791458    -0.78100
C307        C  0.36200886  0.16500039  0.99650243     0.82600
N308        N  0.35465615  0.17996748  0.02649003    -0.78100
C309        C  0.33892673  0.21111095  0.02830708     0.82700
N310        N  0.33004348  0.22737693  0.99941353    -0.79800
C311        C  0.54740910  0.18976791  0.31374931     0.80200
N312        N  0.54481448  0.16590822  0.33901622    -0.78100
C313        C  0.51370810  0.15144057  0.34854900     0.82600
N314        N  0.48480106  0.16092340  0.33213248    -0.78100
C315        C  0.48672858  0.18472576  0.30662515     0.82700
N316        N  0.51820899  0.19903799  0.29744568    -0.79800
C317        C  0.81269448  0.96271004  0.31571718     0.80200
N318        N  0.83766401  0.96532134  0.33945920    -0.78100
C319        C  0.84685232  0.99663965  0.35365650     0.82600
N320        N  0.83078816  0.02581306  0.34381400    -0.78100
C321        C  0.80576194  0.02397653  0.32003832     0.82700
N322        N  0.79674952  0.99225897  0.30603319    -0.79800
C323        C  0.68472176  0.20996259  0.02683291     0.80200
N324        N  0.69488660  0.22672785  0.99813331    -0.78100
C325        C  0.67904920  0.21822570  0.96858943     0.82600
N326        N  0.65355612  0.19259261  0.96793813    -0.78100
C327        C  0.64325534  0.17576433  0.99637314     0.82700
N328        N  0.65888005  0.18482097  0.02563758    -0.79800
C329        C  0.71985889  0.54482645  0.16978415     0.80200
N330        N  0.69335022  0.54338382  0.14756116    -0.78100
C331        C  0.68049035  0.51218344  0.13569035     0.82600
N332        N  0.69429551  0.48204351  0.14641382    -0.78100
C333        C  0.72065113  0.48277242  0.16886666     0.82700
N334        N  0.73331678  0.51436444  0.18056604    -0.79800
C335        C  0.82801412  0.29610616  0.46975269     0.80200
N336        N  0.81337323  0.28424781  0.49892513    -0.78100
C337        C  0.82714310  0.29521117  0.52872152     0.82600
N338        N  0.85541643  0.31743846  0.52910183    -0.78100
C339        C  0.87030320  0.32904701  0.50026392     0.82700
N340        N  0.85619631  0.31847610  0.47072127    -0.79800
C341        C  0.34243777  0.53249305  0.19355905     0.80200
N342        N  0.36679895  0.53312780  0.16890249    -0.78100
C343        C  0.37966705  0.50301009  0.15672830     0.82600
N344        N  0.36805280  0.47184257  0.16945906    -0.78100
C345        C  0.34363199  0.47034315  0.19396829     0.82700
N346        N  0.33051571  0.50080421  0.20586039    -0.79800
C347        C  0.99033703  0.68826890  0.20267557     0.80200
N348        N  0.98880211  0.66423175  0.17725486    -0.78100
C349        C  0.01815868  0.65309750  0.16231679     0.82600
N350        N  0.04919049  0.66587395  0.17370434    -0.78100
C351        C  0.05149109  0.68959948  0.19931556     0.82700
N352        N  0.02176345  0.70114563  0.21354303    -0.79800
C353        C  0.33971562  0.78152432  0.03008467     0.80200
N354        N  0.36250462  0.80955241  0.02949985    -0.78100
C355        C  0.37440302  0.82309907  0.00002647     0.82600
N356        N  0.36370240  0.80783699  0.97089327    -0.78100
C357        C  0.34089627  0.77983623  0.97087750     0.82700
N358        N  0.32819432  0.76704814  0.00062375    -0.79800
C359        C  0.53320909  0.83259154  0.29556486     0.80200
N360        N  0.53265478  0.85383546  0.32309706    -0.78100
C361        C  0.50249966  0.86333314  0.33745882     0.82600
N362        N  0.47219608  0.85160062  0.32343778    -0.78100
C363        C  0.47201057  0.83008853  0.29597037     0.82700
N364        N  0.50263339  0.82034194  0.28217538    -0.79800
C365        C  0.16064791  0.73195192  0.47151899     0.80200
N366        N  0.13894290  0.70304594  0.47079229    -0.78100
C367        C  0.12750639  0.68756793  0.49944366     0.82600
N368        N  0.13766463  0.70154037  0.52918502    -0.78100
C369        C  0.15935291  0.73034983  0.53088801     0.82700
N370        N  0.17148209  0.74540124  0.50177909    -0.79800
C371        C  0.70120349  0.83552373  0.03061118     0.80200
N372        N  0.67606226  0.85937581  0.03001753    -0.78100
C373        C  0.66400965  0.87163205  0.00065185     0.82600
N374        N  0.67742957  0.85994209  0.97144954    -0.78100
C375        C  0.70251236  0.83607811  0.97097106     0.82700
N376        N  0.71426353  0.82349117  0.00083226    -0.79800
C377        C  0.18316972  0.30148956  0.47212899     0.80200
N378        N  0.19214373  0.28692694  0.50184936    -0.78100
C379        C  0.18114235  0.30089012  0.53142645     0.82600
N380        N  0.16174967  0.32978861  0.53088877    -0.78100
C381        C  0.15294546  0.34465997  0.50151799     0.82700
N382        N  0.16357304  0.33023268  0.47228159    -0.79800
C383        C  0.97052383  0.31728372  0.81475233     0.80200
N384        N  0.97251185  0.34054017  0.84072435    -0.78100
C385        C  0.00330144  0.35514670  0.85074636     0.82600
N386        N  0.03251664  0.34633700  0.83418168    -0.78100
C387        C  0.03133401  0.32320595  0.80799763     0.82700
N388        N  0.00014096  0.30866578  0.79824935    -0.79800
C389        C  0.17538997  0.97895779  0.69433205     0.80200
N390        N  0.15259890  0.97873582  0.66857114    -0.78100
C391        C  0.14015841  0.00893838  0.65655679     0.82600
N392        N  0.15060005  0.03990293  0.67079933    -0.78100
C393        C  0.17345237  0.04099688  0.69652108     0.82700
N394        N  0.18627072  0.01039779  0.70802587    -0.79800
C395        C  0.54324437  0.19750632  0.68521720     0.80200
N396        N  0.54179857  0.17443512  0.65908479    -0.78100
C397        C  0.51131806  0.15966595  0.64861359     0.82600
N398        N  0.48182358  0.16839261  0.66470129    -0.78100
C399        C  0.48230308  0.19157225  0.69085686     0.82700
N400        N  0.51331937  0.20601678  0.70132635    -0.79800
C401        C  0.34017430  0.53030509  0.80487667     0.80200
N402        N  0.36390430  0.53073463  0.82993690    -0.78100
C403        C  0.37621630  0.50039710  0.84214292     0.82600
N404        N  0.36464068  0.46927974  0.82880444    -0.78100
C405        C  0.34082160  0.46822672  0.80388788     0.82700
N406        N  0.32843699  0.49880253  0.79219508    -0.79800
C407        C  0.81833488  0.96249254  0.69262215     0.80200
N408        N  0.84354732  0.96509492  0.66876345    -0.78100
C409        C  0.85166748  0.99614591  0.65354390     0.82600
N410        N  0.83397455  0.02488758  0.66222719    -0.78100
C411        C  0.80860994  0.02294142  0.68596507     0.82700
N412        N  0.80089213  0.99163058  0.70110050    -0.79800
C413        C  0.98261224  0.67693280  0.80053475     0.80200
N414        N  0.01360478  0.68991833  0.78806821    -0.78100
C415        C  0.04396795  0.68156400  0.80317651     0.82600
N416        N  0.04274249  0.66073685  0.83093030    -0.78100
C417        C  0.01227762  0.64796677  0.84385953     0.82700
N418        N  0.98251324  0.65621532  0.82836962    -0.79800
C419        C  0.53124015  0.83208906  0.70815781     0.80200
N420        N  0.53081457  0.85295864  0.68043149    -0.78100
C421        C  0.50071486  0.86189566  0.66592580     0.82600
N422        N  0.47050272  0.84966099  0.67971410    -0.78100
C423        C  0.46980918  0.82852710  0.70724165     0.82700
N424        N  0.50044688  0.81947869  0.72143123    -0.79800
C425        C  0.69803410  0.54498540  0.80377191     0.80200
N426        N  0.67401253  0.54363009  0.82879877    -0.78100
C427        C  0.66449223  0.51276622  0.84362037     0.82600
N428        N  0.67927002  0.48297707  0.83316320    -0.78100
C429        C  0.70333040  0.48356988  0.80826822     0.82700
N430        N  0.71275681  0.51476274  0.79365483    -0.79800
C431        C  0.80929144  0.66656991  0.46882851     0.80200
N432        N  0.79869720  0.68215862  0.49807904    -0.78100
C433        C  0.81037170  0.67062674  0.52838187     0.82600
N434        N  0.83290779  0.64429223  0.52876852    -0.78100
C435        C  0.84382269  0.62909061  0.50014337     0.82700
N436        N  0.83186221  0.64033065  0.47037624    -0.79800
C437        C  0.17807834  0.29559000  0.40998797    -0.21300
C438        C  0.19588557  0.28800099  0.43964947    -0.09400
C439        C  0.22690446  0.27008628  0.43738036     0.29500
C440        C  0.24034682  0.26123773  0.40597384    -0.21300
C441        C  0.22310926  0.26975884  0.37615559    -0.09400
C442        C  0.19134405  0.28649207  0.37857308     0.29500
F443        F  0.17341297  0.29494127  0.35071644    -0.19900
H444        H  0.15395365  0.30914589  0.41104404     0.17800
H445        H  0.26465223  0.24801395  0.40510128     0.17800
F446        F  0.24514131  0.26249817  0.46529602    -0.19900
C447        C  0.28251485  0.39480009  0.21916485    -0.21300
C448        C  0.30399154  0.36594156  0.21566706    -0.09400
C449        C  0.33925435  0.37214099  0.20838903     0.29500
C450        C  0.35225706  0.40648245  0.20315517    -0.21300
C451        C  0.33048931  0.43528878  0.20531351    -0.09400
C452        C  0.29560149  0.42919346  0.21429724     0.29500
F453        F  0.27356379  0.45607482  0.21595378    -0.19900
H454        H  0.25517930  0.39058716  0.22457907     0.17800
H455        H  0.37924027  0.41044783  0.19615529     0.17800
F456        F  0.36054042  0.34494932  0.20373209    -0.19900
C457        C  0.42650331  0.16983428  0.28818510    -0.21300
C458        C  0.45441459  0.19442384  0.28931076    -0.09400
C459        C  0.44991408  0.22822497  0.27589710     0.29500
C460        C  0.41720228  0.23782197  0.26432060    -0.21300
C461        C  0.38870826  0.21378416  0.26569179    -0.09400
C462        C  0.39424830  0.17914724  0.27633679     0.29500
F463        F  0.36797234  0.15442226  0.27666226    -0.19900
H464        H  0.42935884  0.14337475  0.29742209     0.17800
H465        H  0.41369425  0.26460117  0.25631366     0.17800
F466        F  0.47633002  0.25272737  0.27615014    -0.19900
C467        C  0.33218397  0.22350798  0.12265058    -0.21300
C468        C  0.30580790  0.24771818  0.12511913    -0.09400
C469        C  0.29309208  0.26254772  0.09541569     0.29500
C470        C  0.30500743  0.25157687  0.06407027    -0.21300
C471        C  0.32981261  0.22573090  0.06157188    -0.09400
C472        C  0.34417133  0.21260897  0.09130433     0.29500
F473        F  0.36945665  0.18882231  0.09030540    -0.19900
H474        H  0.34287935  0.21208560  0.14500570     0.17800
H475        H  0.29387214  0.26255655  0.04171871     0.17800
F476        F  0.26874395  0.28731842  0.09645710    -0.19900
C477        C  0.12963922  0.32816227  0.22406887    -0.21300
C478        C  0.13717143  0.29412864  0.23465301    -0.09400
C479        C  0.10996060  0.26843264  0.23590968     0.29500
C480        C  0.07666985  0.27629985  0.22430761    -0.21300
C481        C  0.07014966  0.30978500  0.21122620    -0.09400
C482        C  0.09682250  0.33595494  0.21255672     0.29500
F483        F  0.09154741  0.36915577  0.20191824    -0.19900
H484        H  0.14976378  0.34875378  0.22340953     0.17800
H485        H  0.05657408  0.25569985  0.22385229     0.17800
F486        F  0.11603643  0.23524339  0.24603870    -0.19900
C487        C  0.23473951  0.08646705  0.29464307    -0.21300
C488        C  0.19895989  0.08066475  0.29875798    -0.09400
C489        C  0.17695225  0.10906265  0.29538290     0.29500
C490        C  0.19074064  0.14299378  0.28968440    -0.21300
C491        C  0.22666410  0.14921139  0.28800146    -0.09400
C492        C  0.24859996  0.12050884  0.28965083     0.29500
F493        F  0.28350204  0.12550540  0.28732619    -0.19900
H494        H  0.25210063  0.06495690  0.29714675     0.17800
H495        H  0.17342349  0.16466646  0.28842886     0.17800
F496        F  0.14212223  0.10411316  0.29843838    -0.19900
C497        C  0.90407435  0.02944061  0.42513506    -0.21300
C498        C  0.92563159  0.00097129  0.42936190    -0.09400
C499        C  0.92125132  0.97127917  0.40845173     0.29500
C500        C  0.89570663  0.97024433  0.38388490    -0.21300
C501        C  0.87395816  0.99863755  0.37967915    -0.09400
C502        C  0.87834440  0.02833398  0.40069043     0.29500
F503        F  0.85741745  0.05603533  0.39826992    -0.19900
H504        H  0.90679290  0.05247036  0.44112619     0.17800
H505        H  0.89316606  0.94714980  0.36797420     0.17800
F506        F  0.94204587  0.94348552  0.41119322    -0.19900
C507        C  0.08365863  0.04180041  0.41374685    -0.21300
C508        C  0.07147131  0.00916873  0.42633213    -0.09400
C509        C  0.08448959  0.97822581  0.41235825     0.29500
C510        C  0.10898315  0.98011134  0.38647879    -0.21300
C511        C  0.12117631  0.01272938  0.37381440    -0.09400
C512        C  0.10818972  0.04370461  0.38784280     0.29500
F513        F  0.11903920  0.07596310  0.37674741    -0.19900
H514        H  0.07417737  0.06607100  0.42393738     0.17800
H515        H  0.11839611  0.95576876  0.37638733     0.17800
F516        F  0.07362523  0.94598252  0.42348693    -0.19900
C517        C  0.88939497  0.96704905  0.61148896    -0.21300
C518        C  0.87846608  0.99811429  0.62674418    -0.09400
C519        C  0.89294148  0.03058139  0.61561538     0.29500
C520        C  0.91729501  0.03169016  0.58950204    -0.21300
C521        C  0.92786334  0.00060602  0.57395438    -0.09400
C522        C  0.91372429  0.96814431  0.58543990     0.29500
F523        F  0.92302358  0.93730481  0.57142175    -0.19900
H524        H  0.87873594  0.94166983  0.61936924     0.17800
H525        H  0.92796526  0.05704096  0.58153441     0.17800
F526        F  0.88402869  0.06131307  0.63012773    -0.19900
C527        C  0.10472717  0.04016101  0.61470119    -0.21300
C528        C  0.11657827  0.00838839  0.62737911    -0.09400
C529        C  0.10604641  0.97661912  0.61148934     0.29500
C530        C  0.08376405  0.97684040  0.58415541    -0.21300
C531        C  0.07144097  0.00852330  0.57191729    -0.09400
C532        C  0.08248590  0.04035612  0.58725570     0.29500
F533        F  0.07154872  0.07171669  0.57619680    -0.19900
H534        H  0.11251813  0.06508850  0.62609113     0.17800
H535        H  0.07583430  0.95191554  0.57282324     0.17800
F536        F  0.11692959  0.94514084  0.62219692    -0.19900
C537        C  0.81352141  0.31476564  0.41267958    -0.21300
C538        C  0.81221933  0.28819755  0.43693170    -0.09400
C539        C  0.79827581  0.25467024  0.42841132     0.29500
C540        C  0.78784849  0.24751789  0.39523816    -0.21300
C541        C  0.79142130  0.27378407  0.37062536    -0.09400
C542        C  0.80325959  0.30776699  0.37996283     0.29500
F543        F  0.80564529  0.33422450  0.35717422    -0.19900
H544        H  0.82338243  0.34101838  0.41887958     0.17800
H545        H  0.77871342  0.22120213  0.38844202     0.17800
F546        F  0.79686446  0.22844742  0.45141567    -0.19900
C547        C  0.72347789  0.41732848  0.16539526    -0.21300
C548        C  0.73428227  0.44913174  0.18096477    -0.09400
C549        C  0.75669261  0.44787901  0.20867019     0.29500
C550        C  0.76664098  0.41552190  0.22116727    -0.21300
C551        C  0.75483220  0.38370564  0.20627811    -0.09400
C552        C  0.73359117  0.38503115  0.17774031     0.29500
F553        F  0.72138086  0.35518650  0.16238677    -0.19900
H554        H  0.70653590  0.41725337  0.14382609     0.17800
H555        H  0.78328522  0.41543390  0.24295571     0.17800
F556        F  0.76828449  0.47769715  0.22445110    -0.19900
C557        C  0.71398004  0.19920173  0.11599812    -0.21300
C558        C  0.72740216  0.23288767  0.12398992    -0.09400
C559        C  0.73017444  0.25855044  0.09875083     0.29500
C560        C  0.71743985  0.25084210  0.06642202    -0.21300
C561        C  0.70195665  0.21755836  0.05923340    -0.09400
C562        C  0.70147564  0.19148911  0.08416478     0.29500
F563        F  0.68842982  0.15845304  0.07810195    -0.19900
H564        H  0.71225858  0.17880602  0.13491958     0.17800
H565        H  0.71831201  0.27124979  0.04753479     0.17800
F566        F  0.74303933  0.29140164  0.10582991    -0.19900
C567        C  0.75886360  0.09052098  0.26814784    -0.21300
C568        C  0.76578618  0.12175776  0.28643223    -0.09400
C569        C  0.78295299  0.11966910  0.31741388     0.29500
C570        C  0.79465918  0.08754091  0.32855144    -0.21300
C571        C  0.78948037  0.05669589  0.30933198    -0.09400
C572        C  0.77046734  0.05832679  0.27939712     0.29500
F573        F  0.76432869  0.02928139  0.26011292    -0.19900
H574        H  0.74533116  0.09103845  0.24442399     0.17800
H575        H  0.80857134  0.08708770  0.35206802     0.17800
F576        F  0.78960288  0.14871091  0.33657338    -0.19900
C577        C  0.64422169  0.21064839  0.31348439    -0.21300
C578        C  0.65052764  0.21707570  0.27932391    -0.09400
C579        C  0.62217256  0.21937858  0.25746149     0.29500
C580        C  0.58834519  0.21279277  0.26924453    -0.21300
C581        C  0.58224145  0.20325542  0.30286732    -0.09400
C582        C  0.61049088  0.20353517  0.32518540     0.29500
F583        F  0.60572872  0.19574847  0.35816673    -0.19900
H584        H  0.66561594  0.20891054  0.33078233     0.17800
H585        H  0.56715138  0.21318053  0.25158997     0.17800
F586        F  0.62728225  0.22684794  0.22444156    -0.19900
C587        C  0.89837420  0.29201673  0.24213949    -0.21300
C588        C  0.87170885  0.28754718  0.21829054    -0.09400
C589        C  0.88086200  0.28457001  0.18418012     0.29500
C590        C  0.91561426  0.28900553  0.17418378    -0.21300
C591        C  0.94195243  0.29566006  0.19794851    -0.09400
C592        C  0.93310981  0.29580213  0.23218487     0.29500
F593        F  0.95757155  0.30277383  0.25586585    -0.19900
H594        H  0.89220373  0.29399312  0.26864214     0.17800
H595        H  0.92181804  0.28889370  0.14761007     0.17800
F596        F  0.85616896  0.27999759  0.16029405    -0.19900
C597        C  0.15252026  0.74071685  0.41043088    -0.21300
C598        C  0.17356668  0.74590830  0.43888547    -0.09400
C599        C  0.20796652  0.75857859  0.43437564     0.29500
C600        C  0.22169638  0.76265249  0.40178534    -0.21300
C601        C  0.20127468  0.75409682  0.37361189    -0.09400
C602        C  0.16623932  0.74449401  0.37814732     0.29500
F603        F  0.14578703  0.73678255  0.35127948    -0.19900
H604        H  0.12579034  0.73150602  0.41314687     0.17800
H605        H  0.24887065  0.76993913  0.39861163     0.17800
F606        F  0.22913749  0.76380469  0.46114671    -0.19900
C607        C  0.38220184  0.83514243  0.25954029    -0.21300
C608        C  0.37199168  0.79952198  0.25491318    -0.09400
C609        C  0.39592185  0.77372579  0.26291218     0.29500
C610        C  0.42900651  0.78364944  0.27517957    -0.21300
C611        C  0.43845497  0.81926239  0.28048823    -0.09400
C612        C  0.41474365  0.84487970  0.27240583     0.29500
F613        F  0.42320117  0.87955186  0.27669464    -0.19900
H614        H  0.36466101  0.85577138  0.25376807     0.17800
H615        H  0.44690082  0.76348808  0.28142826     0.17800
F616        F  0.38749272  0.73902853  0.25892962    -0.19900
C617        C  0.33816582  0.75970796  0.12226520    -0.21300
C618        C  0.30268819  0.75996564  0.12939686    -0.09400
C619        C  0.27905319  0.76257711  0.10286930     0.29500
C620        C  0.29107343  0.76637466  0.06971218    -0.21300
C621        C  0.32676416  0.76881761  0.06295547    -0.09400
C622        C  0.35019974  0.76454496  0.08939981     0.29500
F623        F  0.38485371  0.76699980  0.08367288    -0.19900
H624        H  0.35669278  0.75845867  0.14251124     0.17800
H625        H  0.27266171  0.77012429  0.04975239     0.17800
F626        F  0.24458097  0.76359201  0.10930820    -0.19900
C627        C  0.14778107  0.69047344  0.21874141    -0.21300
C628        C  0.15210432  0.71954215  0.24030901    -0.09400
C629        C  0.12333540  0.74015209  0.24706300     0.29500
C630        C  0.09073014  0.73075092  0.23341039    -0.21300
C631        C  0.08631497  0.70096951  0.21245647    -0.09400
C632        C  0.11561801  0.68126666  0.20495862     0.29500
F633        F  0.11327794  0.65200041  0.18540784    -0.19900
H634        H  0.16943217  0.67418938  0.21291950     0.17800
H635        H  0.06884912  0.74655315  0.23958439     0.17800
F636        F  0.12628854  0.76833317  0.26799560    -0.19900
C637        C  0.33203695  0.63036458  0.20986162    -0.21300
C638        C  0.30228479  0.63024683  0.23019956    -0.09400
C639        C  0.28562883  0.59755565  0.23805468     0.29500
C640        C  0.29890068  0.56608664  0.22627319    -0.21300
C641        C  0.32878925  0.56620173  0.20612763    -0.09400
C642        C  0.34515042  0.59892452  0.19787967     0.29500
F643        F  0.37413106  0.60089743  0.17851277    -0.19900
H644        H  0.34535584  0.65490974  0.20316428     0.17800
H645        H  0.28545420  0.54155075  0.23276199     0.17800
F646        F  0.25625651  0.59570096  0.25690857    -0.19900
C647        C  0.24202551  0.91532338  0.27088791    -0.21300
C648        C  0.22251709  0.88411025  0.27760430    -0.09400
C649        C  0.18991122  0.88652910  0.29313843     0.29500
C650        C  0.17794195  0.91916955  0.30288075    -0.21300
C651        C  0.19780770  0.95031098  0.29710841    -0.09400
C652        C  0.22981322  0.94812534  0.28032477     0.29500
F653        F  0.24980591  0.97740515  0.27378046    -0.19900
H654        H  0.26702119  0.91440332  0.25855478     0.17800
H655        H  0.15289061  0.91994911  0.31512477     0.17800
F656        F  0.16939244  0.85744506  0.29900183    -0.19900
C657        C  0.79000980  0.71441599  0.43133379    -0.21300
C658        C  0.79956553  0.67962410  0.43507708    -0.09400
C659        C  0.80270394  0.65851231  0.40584008     0.29500
C660        C  0.79634339  0.67221480  0.37380634    -0.21300
C661        C  0.78662013  0.70709079  0.37019264    -0.09400
C662        C  0.78391601  0.72812601  0.39952630     0.29500
F663        F  0.77567177  0.76242064  0.39764267    -0.19900
H664        H  0.78808155  0.73148536  0.45305717     0.17800
H665        H  0.79815449  0.65529429  0.35197003     0.17800
F666        F  0.81131616  0.62435976  0.40813304    -0.19900
C667        C  0.74159343  0.64252227  0.17412882    -0.21300
C668        C  0.75962021  0.64566740  0.20453072    -0.09400
C669        C  0.76457093  0.61548023  0.22377919     0.29500
C670        C  0.75200548  0.58252778  0.21226165    -0.21300
C671        C  0.73375058  0.57944993  0.18179084    -0.09400
C672        C  0.72858739  0.61000587  0.16290000     0.29500
F673        F  0.71162208  0.60861951  0.13311768    -0.19900
H674        H  0.73743995  0.66553064  0.15893261     0.17800
H675        H  0.75628831  0.55948558  0.22731578     0.17800
F676        F  0.78241155  0.61769555  0.25301099    -0.19900
C677        C  0.71544751  0.82752249  0.12502153    -0.21300
C678        C  0.72959990  0.79423602  0.12755237    -0.09400
C679        C  0.73514374  0.77498915  0.09761665     0.29500
C680        C  0.72680758  0.78886023  0.06624555    -0.21300
C681        C  0.71244121  0.82201181  0.06376448    -0.09400
C682        C  0.70699018  0.84132644  0.09366277     0.29500
F683        F  0.69392198  0.87391632  0.09274261    -0.19900
H684        H  0.71122981  0.84316577  0.14736504     0.17800
H685        H  0.73093228  0.77321595  0.04388624     0.17800
F686        F  0.74824327  0.74242510  0.09846910    -0.19900
C687        C  0.60647639  0.78275583  0.25422473    -0.21300
C688        C  0.63522739  0.80462211  0.26282831    -0.09400
C689        C  0.62956158  0.83709230  0.27843477     0.29500
C690        C  0.59616979  0.84647669  0.28720582    -0.21300
C691        C  0.56740130  0.82372537  0.28090865    -0.09400
C692        C  0.57271703  0.79218689  0.26315613     0.29500
F693        F  0.54578241  0.76934273  0.25661353    -0.19900
H694        H  0.61031341  0.75734212  0.24273426     0.17800
H695        H  0.59302526  0.87124520  0.30016463     0.17800
F696        F  0.65668775  0.85905568  0.28683594    -0.19900
C697        C  0.77518272  0.92420401  0.27829676    -0.21300
C698        C  0.80178918  0.92761013  0.30224910    -0.09400
C699        C  0.81635792  0.89683207  0.31471411     0.29500
C700        C  0.80299718  0.86388443  0.30514831    -0.21300
C701        C  0.77516162  0.86058880  0.28285160    -0.09400
C702        C  0.76199459  0.89094675  0.26854682     0.29500
F703        F  0.73486043  0.88860563  0.24706742    -0.19900
H704        H  0.76364225  0.94726028  0.26799500     0.17800
H705        H  0.81376099  0.84073704  0.31616073     0.17800
F706        F  0.84254614  0.89814893  0.33731291    -0.19900
C707        C  0.93207008  0.67488650  0.22790369    -0.21300
C708        C  0.95764052  0.69999937  0.21791765    -0.09400
C709        C  0.94993414  0.73577944  0.21891002     0.29500
C710        C  0.91643178  0.74586970  0.22741072    -0.21300
C711        C  0.89040684  0.72060185  0.23599368    -0.09400
C712        C  0.89885682  0.68505401  0.23723626     0.29500
F713        F  0.87408983  0.65987211  0.24422267    -0.19900
H714        H  0.93743872  0.64716354  0.22710888     0.17800
H715        H  0.91019974  0.77328898  0.22539233     0.17800
F716        F  0.97375375  0.76064984  0.20869356    -0.19900
C717        C  0.27653050  0.39448675  0.78235817    -0.21300
C718        C  0.29778331  0.36527664  0.78152547    -0.09400
C719        C  0.33385574  0.37096312  0.78378502     0.29500
C720        C  0.34792645  0.40490917  0.78955820    -0.21300
C721        C  0.32642689  0.43379208  0.79219229    -0.09400
C722        C  0.29065086  0.42845752  0.78730166     0.29500
F723        F  0.26898848  0.45559222  0.79002904    -0.19900
H724        H  0.24867281  0.39083689  0.78052767     0.17800
H725        H  0.37559783  0.40849928  0.79311721     0.17800
F726        F  0.35528376  0.34353270  0.78299791    -0.19900
C727        C  0.42109995  0.17457490  0.70446951    -0.21300
C728        C  0.44879095  0.19926366  0.70775850    -0.09400
C729        C  0.44287181  0.23090636  0.72515854     0.29500
C730        C  0.40935524  0.23820558  0.73699873    -0.21300
C731        C  0.38134681  0.21401759  0.73188447    -0.09400
C732        C  0.38810038  0.18158556  0.71631155     0.29500
F733        F  0.36256907  0.15659868  0.71150487    -0.19900
H734        H  0.42474323  0.14962685  0.69198528     0.17800
H735        H  0.40505608  0.26333181  0.74886904     0.17800
F736        F  0.46885636  0.25549598  0.72920244    -0.19900
C737        C  0.17922704  0.13900237  0.71420559    -0.21300
C738        C  0.21477527  0.14435127  0.72004296    -0.09400
C739        C  0.23559707  0.11486228  0.72254157     0.29500
C740        C  0.22138225  0.08089310  0.71753877    -0.21300
C741        C  0.18641125  0.07574372  0.70903303    -0.09400
C742        C  0.16516728  0.10508264  0.70832938     0.29500
F743        F  0.13105847  0.10114375  0.70065031    -0.19900
H744        H  0.16275377  0.16126808  0.71198969     0.17800
H745        H  0.23827663  0.05884085  0.71811092     0.17800
F746        F  0.27005922  0.11899802  0.72846518    -0.19900
C747        C  0.12422917  0.33067470  0.77755073    -0.21300
C748        C  0.13083516  0.29600310  0.76779599    -0.09400
C749        C  0.10301005  0.27098851  0.76743392     0.29500
C750        C  0.06991976  0.28025478  0.77873980    -0.21300
C751        C  0.06422370  0.31442936  0.79078441    -0.09400
C752        C  0.09156668  0.33982059  0.78891145     0.29500
F753        F  0.08703815  0.37352172  0.79885071    -0.19900
H754        H  0.14489924  0.35071043  0.77762822     0.17800
H755        H  0.04929839  0.26022338  0.77985401     0.17800
F756        F  0.10826450  0.23714911  0.75852522    -0.19900
C757        C  0.18856296  0.28563755  0.62520987    -0.21300
C758        C  0.21559285  0.26214165  0.62648663    -0.09400
C759        C  0.22965324  0.24968903  0.59608846     0.29500
C760        C  0.21760318  0.26156637  0.56532049    -0.21300
C761        C  0.19151612  0.28617875  0.56408958    -0.09400
C762        C  0.17663872  0.29763767  0.59451016     0.29500
F763        F  0.15081327  0.32081140  0.59493501    -0.19900
H764        H  0.17717429  0.29564103  0.64809033     0.17800
H765        H  0.22943011  0.25209114  0.54244976     0.17800
F766        F  0.25537468  0.22637431  0.59589889    -0.19900
C767        C  0.29692097  0.24889728  0.93693562    -0.21300
C768        C  0.32678317  0.22913626  0.93753968    -0.09400
C769        C  0.34429287  0.22249263  0.90723133     0.29500
C770        C  0.33073749  0.23326056  0.87676433    -0.21300
C771        C  0.29950549  0.25091636  0.87579496    -0.09400
C772        C  0.28326967  0.25970805  0.90642993     0.29500
F773        F  0.25366124  0.27778277  0.90710868    -0.19900
H774        H  0.28316665  0.25460654  0.95998977     0.17800
H775        H  0.34431676  0.22677414  0.85382246     0.17800
F776        F  0.37431032  0.20510774  0.90691252    -0.19900
C777        C  0.79950751  0.30297840  0.61840176    -0.21300
C778        C  0.79025423  0.26809868  0.62640874    -0.09400
C779        C  0.78884348  0.24240289  0.60095672     0.29500
C780        C  0.79900126  0.25148080  0.56811747    -0.21300
C781        C  0.81054565  0.28609322  0.56088131    -0.09400
C782        C  0.80941542  0.31201458  0.58602504     0.29500
F783        F  0.81883418  0.34606880  0.57952808    -0.19900
H784        H  0.79999449  0.32325964  0.63762228     0.17800
H785        H  0.79973016  0.23125581  0.54892896     0.17800
F786        F  0.78015622  0.20841050  0.60828227    -0.19900
C787        C  0.75336568  0.41560468  0.75982583    -0.21300
C788        C  0.74691463  0.38529050  0.77939349    -0.09400
C789        C  0.72690164  0.38806918  0.80886710     0.29500
C790        C  0.71341728  0.42016342  0.81805277    -0.21300
C791        C  0.71927463  0.45031555  0.79819796    -0.09400
C792        C  0.73968617  0.44776008  0.76899206     0.29500
F793        F  0.74565805  0.47589020  0.74866342    -0.19900
H794        H  0.76845920  0.41436570  0.73687960     0.17800
H795        H  0.69796967  0.42114713  0.84078186     0.17800
F796        F  0.71927600  0.35966830  0.82844412    -0.19900
C797        C  0.75860973  0.08967504  0.73570409    -0.21300
C798        C  0.76343136  0.11984260  0.71565054    -0.09400
C799        C  0.77961621  0.11653704  0.68404329     0.29500
C800        C  0.79294677  0.08455065  0.67418005    -0.21300
C801        C  0.79025401  0.05504279  0.69525955    -0.09400
C802        C  0.77172253  0.05755295  0.72565636     0.29500
F803        F  0.76772519  0.02962768  0.74658670    -0.19900
H804        H  0.74579459  0.09113235  0.75990391     0.17800
H805        H  0.80625401  0.08322126  0.65021602     0.17800
F806        F  0.78386322  0.14438510  0.66302786    -0.19900
C807        C  0.61939298  0.21795401  0.74250996    -0.21300
C808        C  0.64724550  0.21805396  0.71949292    -0.09400
C809        C  0.63994144  0.21667127  0.68497618     0.29500
C810        C  0.60567899  0.21242761  0.67403275    -0.21300
C811        C  0.57794375  0.20997765  0.69712932    -0.09400
C812        C  0.58505551  0.21424602  0.73151938     0.29500
F813        F  0.55920054  0.21201166  0.75470793    -0.19900
H814        H  0.62428389  0.21943477  0.76925734     0.17800
H815        H  0.60092300  0.20942886  0.64736306     0.17800
F816        F  0.66591174  0.21667940  0.66188353    -0.19900
C817        C  0.67972331  0.24408224  0.87773794    -0.21300
C818        C  0.71520958  0.25026026  0.87156927    -0.09400
C819        C  0.73819994  0.25183647  0.89881061     0.29500
C820        C  0.72593113  0.24399455  0.93129633    -0.21300
C821        C  0.69082783  0.23427198  0.93664601    -0.09400
C822        C  0.66761148  0.23594204  0.90975317     0.29500
F823        F  0.63334350  0.22787726  0.91395158    -0.19900
H824        H  0.66140001  0.24338881  0.85721870     0.17800
H825        H  0.74425516  0.24297722  0.95171435     0.17800
F826        F  0.77267448  0.25767262  0.89369921    -0.19900
C827        C  0.87365126  0.29605162  0.81406383    -0.21300
C828        C  0.86747482  0.29116409  0.77966863    -0.09400
C829        C  0.89605699  0.29014911  0.75750692     0.29500
C830        C  0.92983613  0.29632766  0.76934942    -0.21300
C831        C  0.93578534  0.30408357  0.80338525    -0.09400
C832        C  0.90735783  0.30267258  0.82585171     0.29500
F833        F  0.91195456  0.30873384  0.85918343    -0.19900
H834        H  0.85218979  0.29671326  0.83164303     0.17800
H835        H  0.95113181  0.29692820  0.75153662     0.17800
F836        F  0.89127286  0.28409989  0.72418505    -0.19900
C837        C  0.21528720  0.76391480  0.60368209    -0.21300
C838        C  0.19609919  0.74988942  0.63092212    -0.09400
C839        C  0.16305208  0.73481598  0.62523539     0.29500
C840        C  0.15036221  0.73155281  0.59268297    -0.21300
C841        C  0.17061647  0.74244717  0.56482455    -0.09400
C842        C  0.20271583  0.76015761  0.57068590     0.29500
F843        F  0.22305886  0.77130102  0.54466468    -0.19900
H844        H  0.24096038  0.77549193  0.60771175     0.17800
H845        H  0.12520686  0.71856346  0.58922996     0.17800
F846        F  0.14372872  0.72151746  0.65114118    -0.19900
C847        C  0.39564132  0.77610479  0.75101190    -0.21300
C848        C  0.36752014  0.79762583  0.74486556    -0.09400
C849        C  0.37364726  0.82905665  0.72707259     0.29500
C850        C  0.40685164  0.83857551  0.71549382    -0.21300
C851        C  0.43525326  0.81743990  0.72162931    -0.09400
C852        C  0.42933722  0.78607643  0.73989895     0.29500
F853        F  0.45579728  0.76475216  0.74643498    -0.19900
H854        H  0.39162483  0.75193884  0.76500265     0.17800
H855        H  0.41029531  0.86293159  0.70170239     0.17800
F856        F  0.34725325  0.85042036  0.72023716    -0.19900
C857        C  0.08315304  0.72337298  0.76906317    -0.21300
C858        C  0.07863374  0.69306268  0.78909792    -0.09400
C859        C  0.10802343  0.67335822  0.79582267     0.29500
C860        C  0.14046917  0.68335002  0.78263384    -0.21300
C861        C  0.14514032  0.71339793  0.76255360    -0.09400
C862        C  0.11609557  0.73366525  0.75612295     0.29500
F863        F  0.11920299  0.76252326  0.73628416    -0.19900
H864        H  0.06119544  0.73913363  0.76343336     0.17800
H865        H  0.16216929  0.66709668  0.78796493     0.17800
F866        F  0.10547576  0.64345616  0.81426245    -0.19900
C867        C  0.28612293  0.59647738  0.75917210    -0.21300
C868        C  0.30062666  0.62876392  0.77070309    -0.09400
C869        C  0.32857818  0.62831383  0.79319336     0.29500
C870        C  0.34132593  0.59631060  0.80388401    -0.21300
C871        C  0.32664593  0.56398421  0.79249500    -0.09400
C872        C  0.29883398  0.56452941  0.76982068     0.29500
F873        F  0.28336290  0.53431912  0.75816040    -0.19900
H874        H  0.26460598  0.59580360  0.74185010     0.17800
H875        H  0.36273568  0.59697099  0.82132364     0.17800
F876        F  0.34330456  0.65865887  0.80540980    -0.19900
C877        C  0.28119627  0.75672237  0.89884119    -0.21300
C878        C  0.30472117  0.75725460  0.87185181    -0.09400
C879        C  0.34034613  0.75971009  0.87829619     0.29500
C880        C  0.35211139  0.76430084  0.91121389    -0.21300
C881        C  0.32854922  0.76604929  0.93816659    -0.09400
C882        C  0.29300092  0.76061059  0.93191813     0.29500
F883        F  0.26955144  0.76264065  0.95728103    -0.19900
H884        H  0.25360812  0.75541019  0.89412034     0.17800
H885        H  0.37961458  0.76851360  0.91549234     0.17800
F886        F  0.36355599  0.76082067  0.85254732    -0.19900
C887        C  0.18656755  0.88088951  0.70644565    -0.21300
C888        C  0.21580312  0.88049321  0.72709375    -0.09400
C889        C  0.23135974  0.91287355  0.73746710     0.29500
C890        C  0.21790578  0.94469457  0.72713695    -0.21300
C891        C  0.18881731  0.94506702  0.70619250    -0.09400
C892        C  0.17316383  0.91257254  0.69610364     0.29500
F893        F  0.14455360  0.91101758  0.67651449    -0.19900
H894        H  0.17391318  0.85652510  0.69813239     0.17800
H895        H  0.23056444  0.96908929  0.73532893     0.17800
F896        F  0.25946361  0.91399126  0.75777406    -0.19900
C897        C  0.77191880  0.73013204  0.59539413    -0.21300
C898        C  0.78428163  0.71531670  0.62532871    -0.09400
C899        C  0.80535298  0.68619474  0.62276695     0.29500
C900        C  0.81317461  0.67205815  0.59129355    -0.21300
C901        C  0.80063326  0.68659168  0.56129925    -0.09400
C902        C  0.77999032  0.71609602  0.56379075     0.29500
F903        F  0.76766272  0.73157641  0.53588936    -0.19900
H904        H  0.75580698  0.75277998  0.59632689     0.17800
H905        H  0.82923624  0.64939457  0.59066041     0.17800
F906        F  0.81813752  0.67091431  0.65058804    -0.19900
C907        C  0.75181514  0.61743113  0.76032463    -0.21300
C908        C  0.73629637  0.64734602  0.77331900    -0.09400
C909        C  0.70573633  0.64334215  0.79231010     0.29500
C910        C  0.69241332  0.60989625  0.80029216    -0.21300
C911        C  0.70947917  0.57967092  0.78987136    -0.09400
C912        C  0.73868869  0.58375035  0.76861583     0.29500
F913        F  0.75588048  0.55550663  0.75746945    -0.19900
H914        H  0.77550070  0.62008632  0.74572755     0.17800
H915        H  0.66945289  0.60785524  0.81597979     0.17800
F916        F  0.68954221  0.67187122  0.80436475    -0.19900
C917        C  0.62763871  0.83855140  0.72644700    -0.21300
C918        C  0.63403801  0.80575792  0.74061201    -0.09400
C919        C  0.60541081  0.78316593  0.74862302     0.29500
C920        C  0.57147118  0.79232556  0.73988107    -0.21300
C921        C  0.56561964  0.82414722  0.72313800    -0.09400
C922        C  0.59414903  0.84779575  0.71808092     0.29500
F923        F  0.58997583  0.87975486  0.70398000    -0.19900
H924        H  0.64903279  0.85669329  0.72041880     0.17800
H925        H  0.55011665  0.77369917  0.74446590     0.17800
F926        F  0.61042726  0.75120588  0.76236220    -0.19900
C927        C  0.71323257  0.82376157  0.87629085    -0.21300
C928        C  0.73394656  0.79440716  0.87451098    -0.09400
C929        C  0.74595215  0.78007389  0.90490619     0.29500
C930        C  0.73642111  0.79419358  0.93598937    -0.21300
C931        C  0.71491286  0.82297138  0.93779632    -0.09400
C932        C  0.70398883  0.83809167  0.90733657     0.29500
F933        F  0.68420484  0.86679055  0.90717423    -0.19900
H934        H  0.70411086  0.83579915  0.85355142     0.17800
H935        H  0.74543451  0.78204979  0.95871169     0.17800
F936        F  0.76648313  0.75191486  0.90491591    -0.19900
C937        C  0.80820716  0.86388446  0.70328304    -0.21300
C938        C  0.77983561  0.86091537  0.72530102    -0.09400
C939        C  0.76761635  0.89136280  0.74067471     0.29500
C940        C  0.78150545  0.92449119  0.73134629    -0.21300
C941        C  0.80799883  0.92761516  0.70692187    -0.09400
C942        C  0.82237388  0.89667690  0.69429082     0.29500
F943        F  0.84877734  0.89774282  0.67165607    -0.19900
H944        H  0.81841439  0.84063978  0.69161682     0.17800
H945        H  0.77033547  0.94769853  0.74207438     0.17800
F946        F  0.74049299  0.88935314  0.76247063    -0.19900
C947        C  0.88680950  0.66998805  0.77941323    -0.21300
C948        C  0.88130853  0.70149936  0.76236622    -0.09400
C949        C  0.91042595  0.72321296  0.75398033     0.29500
C950        C  0.94384089  0.71453825  0.76484435    -0.21300
C951        C  0.94866282  0.68423143  0.78435297    -0.09400
C952        C  0.91965676  0.66144118  0.79030101     0.29500
F953        F  0.92256770  0.63108837  0.80767080    -0.19900
H954        H  0.86507683  0.65245779  0.78591440     0.17800
H955        H  0.96557587  0.73247587  0.75955208     0.17800
F956        F  0.90634503  0.75396972  0.73763773    -0.19900
C957        C  0.43260851  0.90049064  0.02762639    -0.21300
C958        C  0.43658713  0.91955533  0.99759448    -0.09400
C959        C  0.42015886  0.90646536  0.96841983     0.29500
C960        C  0.40053350  0.87490130  0.96939336    -0.21300
C961        C  0.39661573  0.85574274  0.99940631    -0.09400
C962        C  0.41293413  0.86896202  0.02863513     0.29500
F963        F  0.41039423  0.85134711  0.05817381    -0.19900
H964        H  0.44516980  0.90972625  0.05043486     0.17800
H965        H  0.38796803  0.86574453  0.94656478     0.17800
F966        F  0.42257969  0.92427924  0.93898650    -0.19900
C967        C  0.41243154  0.08778686  0.96514410    -0.21300
C968        C  0.42258321  0.07296266  0.99563428    -0.09400
C969        C  0.40891060  0.08585999  0.02590570     0.29500
C970        C  0.38798398  0.11479386  0.02567643    -0.21300
C971        C  0.38007371  0.13146654  0.99540753    -0.09400
C972        C  0.39127437  0.11668363  0.96489560     0.29500
F973        F  0.38309175  0.13076047  0.93483472    -0.19900
H974        H  0.42204485  0.07799743  0.94140902     0.17800
H975        H  0.37898951  0.12482726  0.04954311     0.17800
F976        F  0.41678773  0.07159258  0.05597246    -0.19900
C977        C  0.58750035  0.92434970  0.02745838    -0.21300
C978        C  0.58005162  0.94203219  0.99765268    -0.09400
C979        C  0.60074069  0.93686524  0.96902143     0.29500
C980        C  0.62820854  0.91424738  0.97037090    -0.21300
C981        C  0.63556269  0.89636423  0.00016370    -0.09400
C982        C  0.61486352  0.90166913  0.02879932     0.29500
F983        F  0.62031691  0.88438136  0.05792605    -0.19900
H984        H  0.57178945  0.92766786  0.04978381     0.17800
H985        H  0.64379029  0.91085012  0.94798449     0.17800
F986        F  0.59486067  0.95395405  0.93985824    -0.19900
C987        C  0.60153337  0.13459466  0.02590349    -0.21300
C988        C  0.61648250  0.14672777  0.99563637    -0.09400
C989        C  0.60641661  0.12996859  0.96539717     0.29500
C990        C  0.58209075  0.10178524  0.96571635    -0.21300
C991        C  0.56733349  0.08954786  0.99605070    -0.09400
C992        C  0.57733585  0.10642049  0.02624080     0.29500
F993        F  0.56394503  0.09577866  0.05627261    -0.19900
H994        H  0.60864191  0.14687231  0.04959886     0.17800
H995        H  0.57514939  0.08924095  0.94210236     0.17800
F996        F  0.62066986  0.13999815  0.93554663    -0.19900
C997        C  0.03649093  0.41720365  0.91994113    -0.21300
C998        C  0.00572925  0.43185912  0.93150197    -0.09400
C999        C  0.97425941  0.42080470  0.91636315     0.29500
C1000       C  0.97380978  0.39579399  0.89049259    -0.21300
C1001       C  0.00457988  0.38124519  0.87878390    -0.09400
C1002       C  0.03605434  0.39226063  0.89395357     0.29500
F1003       F  0.06650150  0.37879404  0.88406466    -0.19900
H1004       H  0.06111588  0.42502942  0.93105008     0.17800
H1005       H  0.94916022  0.38815118  0.87933177     0.17800
F1006       F  0.94381028  0.43441200  0.92608268    -0.19900
C1007       C  0.97967613  0.40880943  0.08145263    -0.21300
C1008       C  0.00944208  0.43037197  0.07605118    -0.09400
C1009       C  0.03896665  0.42479230  0.09566395     0.29500
C1010       C  0.03858429  0.39804541  0.11978813    -0.21300
C1011       C  0.00880020  0.37631967  0.12512665    -0.09400
C1012       C  0.97923832  0.38211807  0.10552181     0.29500
F1013       F  0.94975643  0.36197516  0.10928153    -0.19900
H1014       H  0.95661057  0.41235835  0.06672061     0.17800
H1015       H  0.06160743  0.39471387  0.13463095     0.17800
F1016       F  0.06798546  0.44570555  0.09222265    -0.19900
C1017       C  0.97973764  0.60942184  0.88574874    -0.21300
C1018       C  0.01141874  0.62437212  0.87395303    -0.09400
C1019       C  0.04192403  0.61600040  0.89102259     0.29500
C1020       C  0.04057415  0.59336080  0.91871613    -0.21300
C1021       C  0.00897425  0.57826744  0.93034410    -0.09400
C1022       C  0.97842529  0.58667400  0.91344205     0.29500
F1023       F  0.94724490  0.57238405  0.92306013    -0.19900
H1024       H  0.95573956  0.61501023  0.87331153     0.17800
H1025       H  0.06459715  0.58744719  0.93096108     0.17800
F1026       F  0.07331882  0.62940571  0.88105359    -0.19900
C1027       C  0.04433721  0.59221310  0.09071236    -0.21300
C1028       C  0.01216488  0.57843596  0.07952330    -0.09400
C1029       C  0.98197722  0.58913659  0.09613902     0.29500
C1030       C  0.98417049  0.61324363  0.12286156    -0.21300
C1031       C  0.01638661  0.62720609  0.13394603    -0.09400
C1032       C  0.04656961  0.61615348  0.11745974     0.29500
F1033       F  0.07848530  0.62836128  0.12688960    -0.19900
H1034       H  0.06809599  0.58443805  0.07873297     0.11600
H1035       H  0.96042603  0.62088051  0.13494730     0.17800
F1036       F  0.95023453  0.57617129  0.08691913    -0.19900
C1037       C  0.40878990  0.47320830  0.10922850    -0.21300
C1038       C  0.40448706  0.50377847  0.12850265    -0.09400
C1039       C  0.42332040  0.53479580  0.11984370     0.29500
C1040       C  0.44576136  0.53506770  0.09238302    -0.21300
C1041       C  0.44999817  0.50453338  0.07312833    -0.09400
C1042       C  0.43124098  0.47349869  0.08174545     0.29500
F1043       F  0.43402539  0.44359319  0.06337100    -0.19900
H1044       H  0.39435344  0.44904366  0.11507002     0.17800
H1045       H  0.46022832  0.55920733  0.08649280     0.17800
F1046       F  0.42068955  0.56474900  0.13811762    -0.19900
C1047       C  0.61773434  0.48178725  0.06776928    -0.21300
C1048       C  0.59565402  0.51018370  0.06620189    -0.09400
C1049       C  0.60150764  0.53910582  0.08781893     0.29500
C1050       C  0.62915637  0.53954172  0.11028270    -0.21300
C1051       C  0.65137754  0.51119121  0.11173182    -0.09400
C1052       C  0.64539782  0.48223713  0.09015335     0.29500
F1053       F  0.66679492  0.45477339  0.08987775    -0.19900
H1054       H  0.61398621  0.45937538  0.05114290     0.17800
H1055       H  0.63295437  0.56201187  0.12682580     0.17800
F1056       F  0.58017428  0.56663120  0.08779173    -0.19900
C1057       C  0.43779096  0.47206518  0.91028060    -0.21300
C1058       C  0.44620660  0.50419703  0.92633559    -0.09400
C1059       C  0.43104502  0.53489695  0.91472702     0.29500
C1060       C  0.40860898  0.53337941  0.88733262    -0.21300
C1061       C  0.40054107  0.50132013  0.87092418    -0.09400
C1062       C  0.41530569  0.47050479  0.88293132     0.29500
F1063       F  0.40851105  0.43878554  0.86818740    -0.19900
H1064       H  0.44908198  0.44798412  0.91852624     0.17800
H1065       H  0.39746129  0.55752266  0.87907370     0.17800
F1066       F  0.43780593  0.56650239  0.92970270    -0.19900
C1067       C  0.60720419  0.48040917  0.91553735    -0.21300
C1068       C  0.58999085  0.51097782  0.92415641    -0.09400
C1069       C  0.59750864  0.54213594  0.90622717     0.29500
C1070       C  0.62169602  0.54242187  0.88012647    -0.21300
C1071       C  0.63889644  0.51179306  0.87136830    -0.09400
C1072       C  0.63144697  0.48067676  0.88954315     0.29500
F1073       F  0.64760505  0.45042522  0.88261669    -0.19900
H1074       H  0.60206427  0.45612321  0.92906992     0.17800
H1075       H  0.62676862  0.56674913  0.86666020     0.17800
F1076       F  0.58118158  0.57224346  0.91341638    -0.19900
C1077       C  0.08535917  0.60101779  0.47049075    -0.21300
C1078       C  0.06854555  0.58944331  0.50003521    -0.09400
C1079       C  0.07009580  0.61108766  0.52877012     0.29500
C1080       C  0.08871339  0.64316699  0.52802056    -0.21300
C1081       C  0.10607441  0.65453225  0.49869214    -0.09400
C1082       C  0.10398972  0.63317806  0.46971243     0.29500
F1083       F  0.12066748  0.64269217  0.44086947    -0.19900
H1084       H  0.08444298  0.58495155  0.44796306     0.17800
H1085       H  0.08952693  0.65914629  0.55060532     0.17800
F1086       F  0.05315637  0.60169186  0.55750640    -0.19900
C1087       C  0.10421302  0.42407095  0.52988243    -0.21300
C1088       C  0.08913758  0.43426306  0.49964736    -0.09400
C1089       C  0.09693971  0.41610236  0.46982915     0.29500
C1090       C  0.11821800  0.38749189  0.47070338    -0.21300
C1091       C  0.13215109  0.37631941  0.50115253    -0.09400
C1092       C  0.12555421  0.39542228  0.53075130     0.29500
F1093       F  0.13927758  0.38641771  0.56065760    -0.19900
H1094       H  0.09876083  0.43769482  0.55315455     0.17800
H1095       H  0.12294616  0.37349287  0.44747984     0.17800
F1096       F  0.08279693  0.42472585  0.43997686    -0.19900
C1097       C  0.91198399  0.36976305  0.47044926    -0.21300
C1098       C  0.89923858  0.35571214  0.50085505    -0.09400
C1099       C  0.91296309  0.36908971  0.53129386     0.29500
C1100       C  0.93728292  0.39718435  0.53103826    -0.21300
C1101       C  0.94860465  0.41236756  0.50060929    -0.09400
C1102       C  0.93635948  0.39766563  0.47020460     0.29500
F1103       F  0.94707975  0.41072272  0.44006677    -0.19900
H1104       H  0.90240159  0.35984196  0.44658433     0.17800
H1105       H  0.94665178  0.40755052  0.55482231     0.17800
F1106       F  0.90243154  0.35581108  0.56141206    -0.19900
C1107       C  0.91405928  0.57103257  0.53123472    -0.21300
C1108       C  0.92736706  0.55851484  0.50078219    -0.09400
C1109       C  0.91164534  0.56770366  0.47043393     0.29500
C1110       C  0.88371221  0.58958785  0.47069611    -0.21300
C1111       C  0.87100962  0.60305013  0.50103307    -0.09400
C1112       C  0.88619928  0.59313328  0.53150645     0.29500
F1113       F  0.87492463  0.60526830  0.56159398    -0.19900
H1114       H  0.92560284  0.56426682  0.55496090     0.17800
H1115       H  0.87259326  0.59660335  0.44685265     0.17800
F1116       F  0.92345123  0.55615640  0.44032128    -0.19900
C1117       C  0.53909998  0.09738852  0.57891072    -0.21300
C1118       C  0.50792836  0.07868525  0.57182625    -0.09400
C1119       C  0.47778323  0.08769675  0.58943790     0.29500
C1120       C  0.47910338  0.11426606  0.61382993    -0.21300
C1121       C  0.51035126  0.13270318  0.62131536    -0.09400
C1122       C  0.54040831  0.12414047  0.60318968     0.29500
F1123       F  0.57120534  0.14143555  0.60876660    -0.19900
H1124       H  0.56265144  0.09136684  0.56556118     0.17800
H1125       H  0.45549756  0.12003403  0.62719489     0.17800
F1126       F  0.44700797  0.07042515  0.58371536    -0.19900
C1127       C  0.54138004  0.10653070  0.38446710    -0.21300
C1128       C  0.51180270  0.12496010  0.37605420    -0.09400
C1129       C  0.48098690  0.11779129  0.39425323     0.29500
C1130       C  0.47989364  0.09255207  0.41986255    -0.21300
C1131       C  0.50944757  0.07400145  0.42815430    -0.09400
C1132       C  0.54033661  0.08139028  0.41006241     0.29500
F1133       F  0.56955987  0.06401652  0.41661461    -0.19900
H1134       H  0.56547137  0.11128222  0.37092154     0.17800
H1135       H  0.45585144  0.08779226  0.43347424     0.17800
F1136       F  0.45207518  0.13574975  0.38798255    -0.19900
C1137       C  0.47173143  0.89353127  0.38491850    -0.21300
C1138       C  0.50284249  0.88600877  0.36827766    -0.09400
C1139       C  0.53414781  0.90011857  0.38174534     0.29500
C1140       C  0.53408331  0.92098721  0.41078310    -0.21300
C1141       C  0.50301457  0.92876748  0.42723396    -0.09400
C1142       C  0.47169423  0.91461408  0.41394280     0.29500
F1143       F  0.44088596  0.92122466  0.42873813    -0.19900
H1144       H  0.44719784  0.88312838  0.37545925     0.17800
H1145       H  0.55860582  0.93169395  0.42000159     0.17800
F1146       F  0.56505678  0.89436817  0.36676389    -0.19900
C1147       C  0.47122577  0.91995797  0.59379919    -0.21300
C1148       C  0.50286521  0.93052855  0.57857422    -0.09400
C1149       C  0.53362201  0.91794873  0.59228296     0.29500
C1150       C  0.53256340  0.89572079  0.62030960    -0.21300
C1151       C  0.50097575  0.88527497  0.63568710    -0.09400
C1152       C  0.47015617  0.89772476  0.62190079     0.29500
F1153       F  0.43883320  0.88893238  0.63566963    -0.19900
H1154       H  0.44708538  0.92921832  0.58416032     0.17800
H1155       H  0.55678790  0.88676350  0.63003190     0.17800
F1156       F  0.56498843  0.92721421  0.57887821    -0.19900
loop_ 
_geom_bond_atom_site_label_1 
_geom_bond_atom_site_label_2 
_geom_bond_distance 
_geom_bond_site_symmetry_2 
_ccdc_geom_bond_type 
O1           Ni9   1.917       .  S
O1           C11   1.281       .  A
O2           Ni9   1.923   1_565  S
O2           C12   1.282       .  A
O3           Ni9   1.934   1_565  S
O3           C13   1.285       .  A
O4           Ni9   1.930       .  S
O4           C14   1.284       .  A
O5          Ni10   1.919       .  S
O5           C14   1.281       .  A
O6          Ni10   1.925   1_565  S
O6           C13   1.282       .  A
O7          Ni10   1.924   1_565  S
O7           C12   1.284       .  A
O8          Ni10   1.924       .  S
O8           C11   1.283       .  A
Ni9         Ni10   2.382       .  S
C11        C1118   1.487       .  S
C12        C1141   1.493       .  S
C13        C1148   1.499       .  S
C14        C1131   1.492       .  S
O15         Ni23   1.908   1_655  S
O15          C25   1.280       .  A
O16         Ni23   1.910       .  S
O16          C26   1.280       .  A
O17         Ni23   1.898       .  S
O17          C27   1.278       .  A
O18         Ni23   1.897   1_655  S
O18          C28   1.278       .  A
O19         Ni24   1.906   1_655  S
O19          C28   1.280       .  A
O20         Ni24   1.908       .  S
O20          C27   1.281       .  A
O21         Ni24   1.913       .  S
O21          C26   1.281       .  A
O22         Ni24   1.914   1_655  S
O22          C25   1.281       .  A
Ni23        Ni24   2.387       .  S
C25        C1101   1.479       .  S
C26        C1078   1.477       .  S
C27        C1088   1.470       .  S
C28        C1108   1.469       .  S
O29         Ni37   1.912   1_554  S
O29          C39   1.281       .  A
O30         Ni37   1.913       .  S
O30          C40   1.281       .  A
O31         Ni37   1.906       .  S
O31          C41   1.280       .  A
O32         Ni37   1.908   1_554  S
O32          C42   1.280       .  A
O33         Ni38   1.902   1_554  S
O33          C42   1.279       .  A
O34         Ni38   1.905       .  S
O34          C41   1.279       .  A
O35         Ni38   1.916       .  S
O35          C40   1.282       .  A
O36         Ni38   1.916   1_554  S
O36          C39   1.281       .  A
Ni37        Ni38   2.388       .  S
C39        C1048   1.476       .  S
C40        C1058   1.482       .  S
C41        C1068   1.472       .  S
C42        C1041   1.469       .  S
O43         Ni51   1.921       .  S
O43          C53   1.281       .  A
O44         Ni51   1.923   1_556  S
O44          C54   1.283       .  A
O45         Ni51   1.922       .  S
O45          C55   1.283       .  A
O46         Ni51   1.923   1_556  S
O46          C56   1.283       .  A
O47         Ni52   1.919   1_556  S
O47          C56   1.282   1_655  A
O48         Ni52   1.924       .  S
O48          C55   1.282   1_655  A
O49         Ni52   1.929   1_556  S
O49          C54   1.284   1_655  A
O50         Ni52   1.925       .  S
O50          C53   1.284   1_655  A
Ni51        Ni52   2.382   1_455  S
C53        C1008   1.488       .  S
C54        C1021   1.496       .  S
C55        C1028   1.492       .  S
C56         C998   1.489       .  S
O57         Ni65   1.920       .  S
O57          C67   1.282       .  A
O58         Ni65   1.919   1_565  S
O58          C68   1.282       .  A
O59         Ni65   1.910       .  S
O59          C69   1.280       .  A
O60         Ni65   1.909   1_565  S
O60          C70   1.280       .  A
O61         Ni66   1.904   1_565  S
O61          C70   1.279   1_554  A
O62         Ni66   1.905       .  S
O62          C69   1.280   1_554  A
O63         Ni66   1.911   1_565  S
O63          C68   1.280   1_554  A
O64         Ni66   1.913       .  S
O64          C67   1.281   1_554  A
Ni65        Ni66   2.386   1_556  S
C67         C991   1.485       .  S
C68         C958   1.481       .  S
C69         C968   1.476       .  S
C70         C978   1.471       .  S
O71         Ni77   1.907       .  S
O71          C92   1.267       .  A
O72         Ni95   1.924       .  S
O72          C81   1.276       .  A
O73         Ni77   1.909       .  S
O73         Ni95   1.913       .  S
O73         Ni89   1.932       .  S
O73          H96   0.966       .  S
C74          O91   1.273       .  A
C74          O83   1.270       .  A
C74         C918   1.494       .  S
O75         Ni94   1.914       .  S
O75          C81   1.270       .  A
O76         Ni94   1.888       .  S
O76          C78   1.270       .  A
Ni77         O80   1.922       .  S
Ni77         O82   1.894       .  S
C78          O88   1.282       .  A
C78         C938   1.474       .  S
O79         Ni95   1.950       .  S
O79          C85   1.275       .  A
O80          C85   1.267       .  A
C81         C898   1.491       .  S
O82          C84   1.270       .  A
O83         Ni94   1.930       .  S
C84          O90   1.282       .  A
C84         C908   1.470       .  S
C85         C948   1.494       .  S
H86          O87   0.966       .  S
O87         Ni95   1.936       .  S
O87         Ni89   1.917       .  S
O87         Ni94   1.911       .  S
O88         Ni89   1.961       .  S
Ni89         O93   1.927       .  S
Ni89         O91   1.942       .  S
O90         Ni95   1.961       .  S
C92          O93   1.276       .  A
C92         C928   1.491       .  S
O97        Ni103   1.931       .  S
O97         C118   1.273       .  A
O98        Ni121   1.907       .  S
O98         C107   1.269       .  A
O99        Ni103   1.911       .  S
O99        Ni121   1.915       .  S
O99        Ni115   1.919       .  S
O99         H122   0.966       .  S
C100        O117   1.276       .  A
C100        O109   1.274       .  A
C100        C878   1.468       .  S
O101       Ni120   1.928       .  S
O101        C107   1.270       .  A
O102       Ni120   1.911       .  S
O102        C104   1.270       .  A
Ni103       O106   1.929       .  S
Ni103       O108   1.904       .  S
C104        O114   1.275       .  A
C104        C848   1.489       .  S
O105       Ni121   1.917       .  S
O105        C111   1.271       .  A
O106        C111   1.275       .  A
C107        C888   1.485       .  S
O108        C110   1.269       .  A
O109       Ni120   1.918       .  S
C110        O116   1.279       .  A
C110        C861   1.495       .  S
C111        C838   1.473       .  S
H112        O113   0.966       .  S
O113       Ni121   1.910       .  S
O113       Ni115   1.910       .  S
O113       Ni120   1.909       .  S
O114       Ni115   1.944       .  S
Ni115       O119   1.905       .  S
Ni115       O117   1.926       .  S
O116       Ni121   1.962       .  S
C118        O119   1.269       .  A
C118        C868   1.487       .  S
O123       Ni129   1.914       .  S
O123        C144   1.269       .  A
O124       Ni147   1.916       .  S
O124        C133   1.267       .  A
O125       Ni129   1.893       .  S
O125       Ni147   1.901       .  S
O125       Ni141   1.914       .  S
O125        H148   0.966       .  S
C126        O143   1.281       .  A
C126        O135   1.280       .  A
C126        C788   1.483       .  S
O127       Ni146   1.903       .  S
O127        C133   1.265       .  A
O128       Ni146   1.900       .  S
O128        C130   1.265       .  A
Ni129       O132   1.924       .  S
Ni129       O134   1.900       .  S
C130        O140   1.275       .  A
C130        C828   1.485       .  S
O131       Ni147   1.911       .  S
O131        C137   1.277       .  A
O132        C137   1.279       .  A
C133        C778   1.463       .  S
O134        C136   1.265       .  A
O135       Ni146   1.918       .  S
C136        O142   1.273       .  A
C136        C808   1.486       .  S
C137        C798   1.483       .  S
H138        O139   0.966       .  S
O139       Ni147   1.913       .  S
O139       Ni141   1.892       .  S
O139       Ni146   1.888       .  S
O140       Ni141   1.943       .  S
Ni141       O145   1.921       .  S
Ni141       O143   1.920       .  S
O142       Ni147   1.938       .  S
C144        O145   1.270       .  A
C144        C818   1.473       .  S
O149       Ni155   1.912       .  S
O149        C170   1.266       .  A
O150       Ni173   1.938       .  S
O150        C159   1.274       .  A
O151       Ni155   1.891       .  S
O151       Ni173   1.907       .  S
O151       Ni167   1.911       .  S
O151        H174   0.966       .  S
C152        O169   1.281       .  A
C152        O161   1.278       .  A
C152        C771   1.482       .  S
O153       Ni172   1.919       .  S
O153        C159   1.268       .  A
O154       Ni172   1.897       .  S
O154        C156   1.266       .  A
Ni155       O158   1.915       .  S
Ni155       O160   1.897       .  S
C156        O166   1.274       .  A
C156        C718   1.482       .  S
O157       Ni173   1.922       .  S
O157        C163   1.282       .  A
O158        C163   1.278       .  A
C159        C748   1.490       .  S
O160        C162   1.265       .  A
O161       Ni172   1.919       .  S
C162        O168   1.274       .  A
C162        C738   1.481       .  S
C163        C758   1.480       .  S
H164        O165   0.966       .  S
O165       Ni173   1.914       .  S
O165       Ni167   1.912       .  S
O165       Ni172   1.896       .  S
O166       Ni167   1.937       .  S
Ni167       O171   1.943       .  S
Ni167       O169   1.918       .  S
O168       Ni173   1.941       .  S
C170        O171   1.274       .  A
C170        C731   1.495       .  S
O175       Ni181   1.902       .  S
O175        C196   1.266       .  A
O176       Ni199   1.931       .  S
O176        C185   1.273       .  A
O177       Ni181   1.904       .  S
O177       Ni199   1.921       .  S
O177       Ni193   1.937       .  S
O177        H200   0.966       .  S
C178        O195   1.283       .  A
C178        O187   1.273       .  A
C178        C711   1.480       .  S
O179       Ni198   1.920       .  S
O179        C185   1.267       .  A
O180       Ni198   1.897       .  S
O180        C182   1.269       .  A
Ni181       O184   1.923       .  S
Ni181       O186   1.889       .  S
C182        O192   1.275       .  A
C182        C668   1.473       .  S
O183       Ni199   1.930       .  S
O183        C189   1.273       .  A
O184        C189   1.270       .  A
C185        C678   1.494       .  S
O186        C188   1.266       .  A
O187       Ni198   1.911       .  S
C188        O194   1.276       .  A
C188        C701   1.471       .  S
C189        C688   1.480       .  S
H190        O191   0.966       .  S
O191       Ni199   1.918       .  S
O191       Ni193   1.918       .  S
O191       Ni198   1.899       .  S
O192       Ni193   1.934       .  S
Ni193       O197   1.944       .  S
Ni193       O195   1.950       .  S
O194       Ni199   1.951       .  S
C196        O197   1.280       .  A
C196        C661   1.493       .  S
O201       Ni207   1.926       .  S
O201        C222   1.270       .  A
O202       Ni225   1.910       .  S
O202        C211   1.272       .  A
O203       Ni207   1.905       .  S
O203       Ni225   1.905       .  S
O203       Ni219   1.904       .  S
O203        H226   0.967       .  S
C204        O221   1.268       .  A
C204        O213   1.275       .  A
C204        C601   1.471       .  S
O205       Ni224   1.926       .  S
O205        C211   1.272       .  A
O206       Ni224   1.897       .  S
O206        C208   1.268       .  A
Ni207       O210   1.914       .  S
Ni207       O212   1.911       .  S
C208        O218   1.278       .  A
C208        C628   1.487       .  S
O209       Ni225   1.931       .  S
O209        C215   1.278       .  A
O210        C215   1.273       .  A
C211        C638   1.489       .  S
O212        C214   1.271       .  A
O213       Ni224   1.935       .  S
C214        O220   1.276       .  A
C214        C608   1.497       .  S
C215        C618   1.469       .  S
H216        O217   0.965       .  S
O217       Ni225   1.924       .  S
O217       Ni219   1.916       .  S
O217       Ni224   1.911       .  S
O218       Ni219   1.958       .  S
Ni219       O223   1.906       .  S
Ni219       O221   1.911       .  S
O220       Ni225   1.943       .  S
C222        O223   1.268       .  A
C222        C648   1.484       .  S
O227       Ni233   1.908       .  S
O227        C248   1.266       .  A
O228       Ni251   1.923       .  S
O228        C237   1.270       .  A
O229       Ni233   1.893       .  S
O229       Ni251   1.901       .  S
O229       Ni245   1.922       .  S
O229        H252   0.966       .  S
C230        O247   1.281       .  A
C230        O239   1.279       .  A
C230        C568   1.485       .  S
O231       Ni250   1.906       .  S
O231        C237   1.266       .  A
O232       Ni250   1.898       .  S
O232        C234   1.264       .  A
Ni233       O236   1.921       .  S
Ni233       O238   1.899       .  S
C234        O244   1.272       .  A
C234        C578   1.479       .  S
O235       Ni251   1.921       .  S
O235        C241   1.279       .  A
O236        C241   1.279       .  A
C237        C558   1.470       .  S
O238        C240   1.266       .  A
O239       Ni250   1.920       .  S
C240        O246   1.275       .  A
C240        C588   1.489       .  S
C241        C551   1.485       .  S
H242        O243   0.966       .  S
O243       Ni251   1.918       .  S
O243       Ni245   1.898       .  S
O243       Ni250   1.892       .  S
O244       Ni245   1.936       .  S
Ni245       O249   1.920       .  S
Ni245       O247   1.922       .  S
O246       Ni251   1.945       .  S
C248        O249   1.268       .  A
C248        C541   1.470       .  S
O253       Ni261   1.906       .  S
O253        C263   1.279   1_565  A
O254       Ni261   1.905   1_455  S
O254        C264   1.280   1_565  A
O255       Ni261   1.913       .  S
O255        C265   1.281   1_565  A
O256       Ni261   1.911   1_455  S
O256        C266   1.280   1_565  A
O257       Ni262   1.918   1_455  S
O257        C266   1.282       .  A
O258       Ni262   1.917       .  S
O258        C265   1.282       .  A
O259       Ni262   1.910   1_455  S
O259        C264   1.280       .  A
O260       Ni262   1.911       .  S
O260        C263   1.281       .  A
Ni261      Ni262   2.386   1_565  S
C263        C498   1.472       .  S
C264        C531   1.475       .  S
C265        C521   1.483       .  S
C266        C508   1.483       .  S
C267        C651   1.484       .  S
C267        N268   1.362   1_565  A
C267        N272   1.358       .  A
N268        C269   1.362       .  A
C269        C488   1.474       .  S
C269        N270   1.356       .  A
N270        C271   1.354       .  A
C271        C511   1.485       .  S
C271        N272   1.356   1_545  A
O273       Ni279   1.919       .  S
O273        C294   1.268       .  A
O274       Ni297   1.943       .  S
O274        C283   1.275       .  A
O275       Ni279   1.892       .  S
O275       Ni297   1.912       .  S
O275       Ni291   1.913       .  S
O275        H298   0.966       .  S
C276        O293   1.282       .  A
C276        O285   1.278       .  A
C276        C441   1.484       .  S
O277       Ni296   1.912       .  S
O277        C283   1.265       .  A
O278       Ni296   1.894       .  S
O278        C280   1.265       .  A
Ni279       O282   1.918       .  S
Ni279       O284   1.894       .  S
C280        O290   1.272       .  A
C280        C491   1.475       .  S
O281       Ni297   1.920       .  S
O281        C287   1.281       .  A
O282        C287   1.278       .  A
C283        C461   1.489       .  S
O284        C286   1.265       .  A
O285       Ni296   1.913       .  S
C286        O292   1.275       .  A
C286        C448   1.478       .  S
C287        C468   1.481       .  S
H288        O289   0.966       .  S
O289       Ni297   1.915       .  S
O289       Ni291   1.909       .  S
O289       Ni296   1.892       .  S
O290       Ni291   1.931       .  S
Ni291       O295   1.940       .  S
Ni291       O293   1.928       .  S
O292       Ni297   1.939       .  S
C294        O295   1.274       .  A
C294        C478   1.491       .  S
C299        C591   1.483       .  S
C299        N300   1.367   1_655  A
C299        N304   1.357       .  A
N300        C301   1.366       .  A
C301        C481   1.494       .  S
C301        N302   1.364       .  A
N302        C303   1.358       .  A
C303       C1011   1.493       .  S
C303        N304   1.354   1_455  A
C305        C768   1.474       .  S
C305        N306   1.356       .  A
C305        N310   1.360       .  A
N306        C307   1.354       .  A
C307        C971   1.478       .  S
C307        N308   1.354   1_556  A
N308        C309   1.354       .  A
C309        C471   1.480       .  S
C309        N310   1.361   1_554  A
C311        C581   1.486       .  S
C311        N312   1.359       .  A
C311        N316   1.364       .  A
N312        C313   1.356       .  A
C313       C1128   1.491       .  S
C313        N314   1.359       .  A
N314        C315   1.364       .  A
C315        C458   1.490       .  S
C315        N316   1.363       .  A
C317        C698   1.484       .  S
C317        N318   1.356       .  A
C317        N322   1.361       .  A
N318        C319   1.353       .  A
C319        C501   1.477       .  S
C319        N320   1.353   1_565  A
N320        C321   1.357       .  A
C321        C571   1.482       .  S
C321        N322   1.362   1_545  A
C323        C561   1.478       .  S
C323        N324   1.360   1_554  A
C323        N328   1.358       .  A
N324        C325   1.361       .  A
C325        C821   1.475       .  S
C325        N326   1.361       .  A
N326        C327   1.354       .  A
C327        C988   1.486       .  S
C327        N328   1.353   1_556  A
C329        C671   1.482       .  S
C329        N330   1.357       .  A
C329        N334   1.361       .  A
N330        C331   1.354       .  A
C331       C1051   1.479       .  S
C331        N332   1.355       .  A
N332        C333   1.359       .  A
C333        C548   1.486       .  S
C333        N334   1.362       .  A
C335        C538   1.471       .  S
C335        N336   1.360       .  A
C335        N340   1.358       .  A
N336        C337   1.360       .  A
C337        C781   1.466       .  S
C337        N338   1.357       .  A
N338        C339   1.350       .  A
C339       C1098   1.482       .  S
C339        N340   1.352       .  A
C341        C641   1.489       .  S
C341        N342   1.356       .  A
C341        N346   1.367       .  A
N342        C343   1.353       .  A
C343       C1038   1.473       .  S
C343        N344   1.352       .  A
N344        C345   1.354       .  A
C345        C451   1.481       .  S
C345        N346   1.365       .  A
C347        C708   1.482       .  S
C347        N348   1.361       .  A
C347        N352   1.365   1_655  A
N348        C349   1.359   1_655  A
C349       C1031   1.496       .  S
C349        N350   1.357       .  A
N350        C351   1.360       .  A
C351        C631   1.495       .  S
C351        N352   1.365       .  A
C353        C621   1.475       .  S
C353        N354   1.358       .  A
C353        N358   1.364       .  A
N354        C355   1.355       .  A
C355        C961   1.484   1_554  S
C355        N356   1.355   1_554  A
N356        C357   1.357       .  A
C357        C881   1.477       .  S
C357        N358   1.364   1_556  A
C359        C691   1.492       .  S
C359        N360   1.360       .  A
C359        N364   1.365       .  A
N360        C361   1.356       .  A
C361       C1138   1.497       .  S
C361        N362   1.360       .  A
N362        C363   1.363       .  A
C363        C611   1.483       .  S
C363        N364   1.366       .  A
C365        C598   1.483       .  S
C365        N366   1.359       .  A
C365        N370   1.368       .  A
N366        C367   1.351       .  A
C367       C1081   1.480       .  S
C367        N368   1.350       .  A
N368        C369   1.357       .  A
C369        C841   1.488       .  S
C369        N370   1.368       .  A
C371        C681   1.492       .  S
C371        N372   1.355       .  A
C371        N376   1.370       .  A
N372        C373   1.352       .  A
C373        C981   1.475       .  S
C373        N374   1.351   1_554  A
N374        C375   1.354       .  A
C375        C931   1.493       .  S
C375        N376   1.370   1_556  A
C377        C438   1.477       .  S
C377        N378   1.361       .  A
C377        N382   1.354       .  A
N378        C379   1.362       .  A
C379        C761   1.481       .  S
C379        N380   1.355       .  A
N380        C381   1.352       .  A
C381       C1091   1.474       .  S
C381        N382   1.353       .  A
C383        C831   1.488       .  S
C383        N384   1.359       .  A
C383        N388   1.367   1_655  A
N384        C385   1.356   1_655  A
C385       C1001   1.491       .  S
C385        N386   1.357       .  A
N386        C387   1.361       .  A
C387        C751   1.489       .  S
C387        N388   1.365       .  A
C389        C891   1.488       .  S
C389        N390   1.356       .  A
C389        N394   1.366   1_565  A
N390        C391   1.353   1_565  A
C391        C528   1.480       .  S
C391        N392   1.354       .  A
N392        C393   1.356       .  A
C393        C741   1.482       .  S
C393        N394   1.365       .  A
C395        C811   1.486       .  S
C395        N396   1.358       .  A
C395        N400   1.368       .  A
N396        C397   1.353       .  A
C397       C1121   1.491       .  S
C397        N398   1.356       .  A
N398        C399   1.362       .  A
C399        C728   1.495       .  S
C399        N400   1.367       .  A
C401        C871   1.490       .  S
C401        N402   1.359       .  A
C401        N406   1.362       .  A
N402        C403   1.358       .  A
C403       C1061   1.486       .  S
C403        N404   1.357       .  A
N404        C405   1.357       .  A
C405        C721   1.479       .  S
C405        N406   1.360       .  A
C407        C941   1.487       .  S
C407        N408   1.358       .  A
C407        N412   1.360       .  A
N408        C409   1.356       .  A
C409        C518   1.483       .  S
C409        N410   1.355   1_565  A
N410        C411   1.358       .  A
C411        C801   1.481       .  S
C411        N412   1.360   1_545  A
C413        C951   1.501       .  S
C413        N414   1.370   1_655  A
C413        N418   1.363       .  A
N414        C415   1.371       .  A
C415        C858   1.500       .  S
C415        N416   1.362       .  A
N416        C417   1.357       .  A
C417       C1018   1.500       .  S
C417        N418   1.357   1_455  A
C419        C921   1.502       .  S
C419        N420   1.363       .  A
C419        N424   1.371       .  A
N420        C421   1.357       .  A
C421       C1151   1.500       .  S
C421        N422   1.355       .  A
N422        C423   1.362       .  A
C423        C851   1.497       .  S
C423        N424   1.371       .  A
C425        C911   1.485       .  S
C425        N426   1.358       .  A
C425        N430   1.361       .  A
N426        C427   1.354       .  A
C427       C1071   1.478       .  S
C427        N428   1.352       .  A
N428        C429   1.355       .  A
C429        C791   1.481       .  S
C429        N430   1.361       .  A
C431        C658   1.490       .  S
C431        N432   1.372       .  A
C431        N436   1.353       .  A
N432        C433   1.370       .  A
C433        C901   1.494       .  S
C433        N434   1.353       .  A
N434        C435   1.349       .  A
C435       C1111   1.472       .  S
C435        N436   1.352       .  A
C437        C438   1.407       .  A
C437        C442   1.396       .  A
C437        H444   1.083       .  S
C438        C439   1.404       .  A
C439        C440   1.396       .  A
C439        F446   1.357       .  S
C440        C441   1.410       .  A
C440        H445   1.083       .  S
C441        C442   1.407       .  A
C442        F443   1.357       .  S
C447        C448   1.408       .  A
C447        C452   1.399       .  A
C447        H454   1.083       .  S
C448        C449   1.403       .  A
C449        C450   1.399       .  A
C449        F456   1.358       .  S
C450        C451   1.409       .  A
C450        H455   1.083       .  S
C451        C452   1.404       .  A
C452        F453   1.357       .  S
C457        C458   1.402       .  A
C457        C462   1.395       .  A
C457        H464   1.083       .  S
C458        C459   1.412       .  A
C459        C460   1.410       .  A
C459        F466   1.357       .  S
C460        C461   1.406       .  A
C460        H465   1.083       .  S
C461        C462   1.411       .  A
C462        F463   1.358       .  S
C467        C468   1.403       .  A
C467        C472   1.395       .  A
C467        H474   1.083       .  S
C468        C469   1.411       .  A
C469        C470   1.395       .  A
C469        F476   1.358       .  S
C470        C471   1.402       .  A
C470        H475   1.083       .  S
C471        C472   1.412       .  A
C472        F473   1.358       .  S
C477        C478   1.405       .  A
C477        C482   1.394       .  A
C477        H484   1.084       .  S
C478        C479   1.410       .  A
C479        C480   1.413       .  A
C479        F486   1.357       .  S
C480        C481   1.411       .  A
C480        H485   1.083       .  S
C481        C482   1.407       .  A
C482        F483   1.358       .  S
C487        C488   1.401       .  A
C487        C492   1.398       .  A
C487        H494   1.083       .  S
C488        C489   1.408       .  A
C489        C490   1.397       .  A
C489        F496   1.357       .  S
C490        C491   1.401       .  A
C490        H495   1.083       .  S
C491        C492   1.410       .  A
C492        F493   1.358       .  S
C497        C498   1.403       .  A
C497        C502   1.395       .  A
C497        H504   1.083       .  S
C498        C499   1.406   1_545  A
C499        C500   1.393       .  A
C499        F506   1.358       .  S
C500        C501   1.405       .  A
C500        H505   1.083       .  S
C501        C502   1.409   1_565  A
C502        F503   1.357       .  S
C507        C508   1.405       .  A
C507        C512   1.397       .  A
C507        H514   1.083       .  S
C508        C509   1.409   1_545  A
C509        C510   1.396       .  A
C509        F516   1.357       .  S
C510        C511   1.406   1_565  A
C510        H515   1.083       .  S
C511        C512   1.411       .  A
C512        F513   1.357       .  S
C517        C518   1.405       .  A
C517        C522   1.396       .  A
C517        H524   1.083       .  S
C518        C519   1.409   1_565  A
C519        C520   1.398       .  A
C519        F526   1.358       .  S
C520        C521   1.406       .  A
C520        H525   1.083       .  S
C521        C522   1.409   1_545  A
C522        F523   1.357       .  S
C527        C528   1.406       .  A
C527        C532   1.394       .  A
C527        H534   1.083       .  S
C528        C529   1.410   1_545  A
C529        C530   1.392       .  A
C529        F536   1.356       .  S
C530        C531   1.404   1_565  A
C530        H535   1.083       .  S
C531        C532   1.407       .  A
C532        F533   1.357       .  S
C537        C538   1.401       .  A
C537        C542   1.385       .  A
C537        H544   1.084       .  S
C538        C539   1.407       .  A
C539        C540   1.405       .  A
C539        F546   1.357       .  S
C540        C541   1.406       .  A
C540        H545   1.083       .  S
C541        C542   1.405       .  A
C542        F543   1.359       .  S
C547        C548   1.408       .  A
C547        C552   1.396       .  A
C547        H554   1.083       .  S
C548        C549   1.409       .  A
C549        C550   1.398       .  A
C549        F556   1.357       .  S
C550        C551   1.408       .  A
C550        H555   1.083       .  S
C551        C552   1.408       .  A
C552        F553   1.358       .  S
C557        C558   1.401       .  A
C557        C562   1.385       .  A
C557        H564   1.084       .  S
C558        C559   1.405       .  A
C559        C560   1.406       .  A
C559        F566   1.357       .  S
C560        C561   1.409       .  A
C560        H565   1.083       .  S
C561        C562   1.406       .  A
C562        F563   1.358       .  S
C567        C568   1.409       .  A
C567        C572   1.397       .  A
C567        H574   1.083       .  S
C568        C569   1.408       .  A
C569        C570   1.395       .  A
C569        F576   1.358       .  S
C570        C571   1.407       .  A
C570        H575   1.083       .  S
C571        C572   1.407       .  A
C572        F573   1.357       .  S
C577        C578   1.401       .  A
C577        C582   1.399       .  A
C577        H584   1.083       .  S
C578        C579   1.409       .  A
C579        C580   1.401       .  A
C579        F586   1.358       .  S
C580        C581   1.405       .  A
C580        H585   1.083       .  S
C581        C582   1.412       .  A
C582        F583   1.357       .  S
C587        C588   1.411       .  A
C587        C592   1.400       .  A
C587        H594   1.083       .  S
C588        C589   1.406       .  A
C589        C590   1.403       .  A
C589        F596   1.357       .  S
C590        C591   1.409       .  A
C590        H595   1.083       .  S
C591        C592   1.403       .  A
C592        F593   1.357       .  S
C597        C598   1.407       .  A
C597        C602   1.393       .  A
C597        H604   1.084       .  S
C598        C599   1.408       .  A
C599        C600   1.406       .  A
C599        F606   1.357       .  S
C600        C601   1.405       .  A
C600        H605   1.083       .  S
C601        C602   1.400       .  A
C602        F603   1.358       .  S
C607        C608   1.409       .  A
C607        C612   1.397       .  A
C607        H614   1.083       .  S
C608        C609   1.413       .  A
C609        C610   1.409       .  A
C609        F616   1.357       .  S
C610        C611   1.406       .  A
C610        H615   1.083       .  S
C611        C612   1.403       .  A
C612        F613   1.358       .  S
C617        C618   1.399       .  A
C617        C622   1.397       .  A
C617        H624   1.084       .  S
C618        C619   1.407       .  A
C619        C620   1.403       .  A
C619        F626   1.358       .  S
C620        C621   1.404       .  A
C620        H625   1.083       .  S
C621        C622   1.407       .  A
C622        F623   1.357       .  S
C627        C628   1.403       .  A
C627        C632   1.394       .  A
C627        H634   1.084       .  S
C628        C629   1.409       .  A
C629        C630   1.409       .  A
C629        F636   1.357       .  S
C630        C631   1.410       .  A
C630        H635   1.083       .  S
C631        C632   1.412       .  A
C632        F633   1.357       .  S
C637        C638   1.403       .  A
C637        C642   1.398       .  A
C637        H644   1.083       .  S
C638        C639   1.415       .  A
C639        C640   1.399       .  A
C639        F646   1.357       .  S
C640        C641   1.403       .  A
C640        H645   1.083       .  S
C641        C642   1.415       .  A
C642        F643   1.356       .  S
C647        C648   1.409       .  A
C647        C652   1.400       .  A
C647        H654   1.083       .  S
C648        C649   1.407       .  A
C649        C650   1.395       .  A
C649        F656   1.358       .  S
C650        C651   1.407       .  A
C650        H655   1.083       .  S
C651        C652   1.408       .  A
C652        F653   1.357       .  S
C657        C658   1.397       .  A
C657        C662   1.396       .  A
C657        H664   1.083       .  S
C658        C659   1.419       .  A
C659        C660   1.406       .  A
C659        F666   1.358       .  S
C660        C661   1.402       .  A
C660        H665   1.083       .  S
C661        C662   1.419       .  A
C662        F663   1.358       .  S
C667        C668   1.402       .  A
C667        C672   1.391       .  A
C667        H674   1.084       .  S
C668        C669   1.404       .  A
C669        C670   1.404       .  A
C669        F676   1.357       .  S
C670        C671   1.409       .  A
C670        H675   1.083       .  S
C671        C672   1.409       .  A
C672        F673   1.358       .  S
C677        C678   1.403       .  A
C677        C682   1.402       .  A
C677        H684   1.083       .  S
C678        C679   1.416       .  A
C679        C680   1.402       .  A
C679        F686   1.357       .  S
C680        C681   1.402       .  A
C680        H685   1.083       .  S
C681        C682   1.415       .  A
C682        F683   1.358       .  S
C687        C688   1.406       .  A
C687        C692   1.410       .  A
C687        H694   1.083       .  S
C688        C689   1.405       .  A
C689        C690   1.394       .  A
C689        F696   1.359       .  S
C690        C691   1.406       .  A
C690        H695   1.083       .  S
C691        C692   1.411       .  A
C692        F693   1.357       .  S
C697        C698   1.409       .  A
C697        C702   1.401       .  A
C697        H704   1.083       .  S
C698        C699   1.412       .  A
C699        C700   1.390       .  A
C699        F706   1.358       .  S
C700        C701   1.400       .  A
C700        H705   1.084       .  S
C701        C702   1.404       .  A
C702        F703   1.357       .  S
C707        C708   1.406       .  A
C707        C712   1.403       .  A
C707        H714   1.083       .  S
C708        C709   1.405       .  A
C709        C710   1.404       .  A
C709        F716   1.357       .  S
C710        C711   1.407       .  A
C710        H715   1.083       .  S
C711        C712   1.405       .  A
C712        F713   1.357       .  S
C717        C718   1.407       .  A
C717        C722   1.398       .  A
C717        H724   1.083       .  S
C718        C719   1.406       .  A
C719        C720   1.401       .  A
C719        F726   1.357       .  S
C720        C721   1.406       .  A
C720        H725   1.083       .  S
C721        C722   1.405       .  A
C722        F723   1.358       .  S
C727        C728   1.404       .  A
C727        C732   1.392       .  A
C727        H734   1.083       .  S
C728        C729   1.412       .  A
C729        C730   1.413       .  A
C729        F736   1.357       .  S
C730        C731   1.410       .  A
C730        H735   1.083       .  S
C731        C732   1.411       .  A
C732        F733   1.358       .  S
C737        C738   1.402       .  A
C737        C742   1.401       .  A
C737        H744   1.083       .  S
C738        C739   1.410       .  A
C739        C740   1.399       .  A
C739        F746   1.357       .  S
C740        C741   1.402       .  A
C740        H745   1.083       .  S
C741        C742   1.411       .  A
C742        F743   1.358       .  S
C747        C748   1.406       .  A
C747        C752   1.395       .  A
C747        H754   1.084       .  S
C748        C749   1.409       .  A
C749        C750   1.411       .  A
C749        F756   1.357       .  S
C750        C751   1.409       .  A
C750        H755   1.083       .  S
C751        C752   1.407       .  A
C752        F753   1.358       .  S
C757        C758   1.402       .  A
C757        C762   1.394       .  A
C757        H764   1.083       .  S
C758        C759   1.411       .  A
C759        C760   1.396       .  A
C759        F766   1.358       .  S
C760        C761   1.403       .  A
C760        H765   1.083       .  S
C761        C762   1.412       .  A
C762        F763   1.357       .  S
C767        C768   1.402       .  A
C767        C772   1.397       .  A
C767        H774   1.083       .  S
C768        C769   1.407       .  A
C769        C770   1.393       .  A
C769        F776   1.357       .  S
C770        C771   1.405       .  A
C770        H775   1.083       .  S
C771        C772   1.413       .  A
C772        F773   1.358       .  S
C777        C778   1.400       .  A
C777        C782   1.384       .  A
C777        H784   1.084       .  S
C778        C779   1.405       .  A
C779        C780   1.404       .  A
C779        F786   1.357       .  S
C780        C781   1.405       .  A
C780        H785   1.083       .  S
C781        C782   1.404       .  A
C782        F783   1.359       .  S
C787        C788   1.409       .  A
C787        C792   1.398       .  A
C787        H794   1.083       .  S
C788        C789   1.408       .  A
C789        C790   1.393       .  A
C789        F796   1.358       .  S
C790        C791   1.407       .  A
C790        H795   1.083       .  S
C791        C792   1.406       .  A
C792        F793   1.357       .  S
C797        C798   1.407       .  A
C797        C802   1.397       .  A
C797        H804   1.083       .  S
C798        C799   1.409       .  A
C799        C800   1.394       .  A
C799        F806   1.358       .  S
C800        C801   1.405       .  A
C800        H805   1.083       .  S
C801        C802   1.407       .  A
C802        F803   1.357       .  S
C807        C808   1.410       .  A
C807        C812   1.402       .  A
C807        H814   1.083       .  S
C808        C809   1.405       .  A
C809        C810   1.400       .  A
C809        F816   1.357       .  S
C810        C811   1.409       .  A
C810        H815   1.083       .  S
C811        C812   1.405       .  A
C812        F813   1.357       .  S
C817        C818   1.404       .  A
C817        C822   1.388       .  A
C817        H824   1.084       .  S
C818        C819   1.406       .  A
C819        C820   1.404       .  A
C819        F826   1.357       .  S
C820        C821   1.408       .  A
C820        H825   1.083       .  S
C821        C822   1.404       .  A
C822        F823   1.358       .  S
C827        C828   1.402       .  A
C827        C832   1.401       .  A
C827        H834   1.083       .  S
C828        C829   1.412       .  A
C829        C830   1.402       .  A
C829        F836   1.358       .  S
C830        C831   1.404       .  A
C830        H835   1.083       .  S
C831        C832   1.413       .  A
C832        F833   1.357       .  S
C837        C838   1.406       .  A
C837        C842   1.408       .  A
C837        H844   1.083       .  S
C838        C839   1.400       .  A
C839        C840   1.392       .  A
C839        F846   1.358       .  S
C840        C841   1.409       .  A
C840        H845   1.083       .  S
C841        C842   1.410       .  A
C842        F843   1.357       .  S
C847        C848   1.409       .  A
C847        C852   1.412       .  A
C847        H854   1.083       .  S
C848        C849   1.405       .  A
C849        C850   1.397       .  A
C849        F856   1.358       .  S
C850        C851   1.409       .  A
C850        H855   1.083       .  S
C851        C852   1.411       .  A
C852        F853   1.357       .  S
C857        C858   1.410       .  A
C857        C862   1.413       .  A
C857        H864   1.083       .  S
C858        C859   1.412       .  A
C859        C860   1.397       .  A
C859        F866   1.357       .  S
C860        C861   1.404       .  A
C860        H865   1.084       .  S
C861        C862   1.411       .  A
C862        F863   1.357       .  S
C867        C868   1.408       .  A
C867        C872   1.397       .  A
C867        H874   1.083       .  S
C868        C869   1.408       .  A
C869        C870   1.400       .  A
C869        F876   1.358       .  S
C870        C871   1.409       .  A
C870        H875   1.083       .  S
C871        C872   1.409       .  A
C872        F873   1.357       .  S
C877        C878   1.403       .  A
C877        C882   1.401       .  A
C877        H884   1.083       .  S
C878        C879   1.402       .  A
C879        C880   1.398       .  A
C879        F886   1.358       .  S
C880        C881   1.406       .  A
C880        H885   1.084       .  S
C881        C882   1.405       .  A
C882        F883   1.357       .  S
C887        C888   1.402       .  A
C887        C892   1.395       .  A
C887        H894   1.083       .  S
C888        C889   1.412       .  A
C889        C890   1.400       .  A
C889        F896   1.357       .  S
C890        C891   1.404       .  A
C890        H895   1.083       .  S
C891        C892   1.414       .  A
C892        F893   1.356       .  S
C897        C898   1.414       .  A
C897        C902   1.403       .  A
C897        H904   1.083       .  S
C898        C899   1.403       .  A
C899        C900   1.397       .  A
C899        F906   1.358       .  S
C900        C901   1.414       .  A
C900        H905   1.082       .  S
C901        C902   1.405       .  A
C902        F903   1.357       .  S
C907        C908   1.402       .  A
C907        C912   1.401       .  A
C907        H914   1.083       .  S
C908        C909   1.403       .  A
C909        C910   1.392       .  A
C909        F916   1.358       .  S
C910        C911   1.407       .  A
C910        H915   1.083       .  S
C911        C912   1.411       .  A
C912        F913   1.357       .  S
C917        C918   1.403       .  A
C917        C922   1.397       .  A
C917        H924   1.084       .  S
C918        C919   1.411       .  A
C919        C920   1.416       .  A
C919        F926   1.357       .  S
C920        C921   1.411       .  A
C920        H925   1.083       .  S
C921        C922   1.411       .  A
C922        F923   1.358       .  S
C927        C928   1.400       .  A
C927        C932   1.399       .  A
C927        H934   1.083       .  S
C928        C929   1.417       .  A
C929        C930   1.400       .  A
C929        F936   1.358       .  S
C930        C931   1.401       .  A
C930        H935   1.083       .  S
C931        C932   1.418       .  A
C932        F933   1.357       .  S
C937        C938   1.402       .  A
C937        C942   1.391       .  A
C937        H944   1.084       .  S
C938        C939   1.404       .  A
C939        C940   1.402       .  A
C939        F946   1.357       .  S
C940        C941   1.410       .  A
C940        H945   1.083       .  S
C941        C942   1.410       .  A
C942        F943   1.357       .  S
C947        C948   1.404       .  A
C947        C952   1.395       .  A
C947        H954   1.084       .  S
C948        C949   1.410       .  A
C949        C950   1.416       .  A
C949        F956   1.357       .  S
C950        C951   1.412       .  A
C950        H955   1.083       .  S
C951        C952   1.411       .  A
C952        F953   1.358       .  S
C957        C958   1.406   1_554  A
C957        C962   1.397       .  A
C957        H964   1.083       .  S
C958        C959   1.407       .  A
C959        C960   1.397       .  A
C959        F966   1.357       .  S
C960        C961   1.407       .  A
C960        H965   1.083       .  S
C961        C962   1.409   1_556  A
C962        F963   1.357       .  S
C967        C968   1.405       .  A
C967        C972   1.395       .  A
C967        H974   1.083       .  S
C968        C969   1.407   1_556  A
C969        C970   1.391       .  A
C969        F976   1.358       .  S
C970        C971   1.405   1_554  A
C970        H975   1.083       .  S
C971        C972   1.409       .  A
C972        F973   1.357       .  S
C977        C978   1.403   1_554  A
C977        C982   1.392       .  A
C977        H984   1.083       .  S
C978        C979   1.406       .  A
C979        C980   1.394       .  A
C979        F986   1.358       .  S
C980        C981   1.406   1_556  A
C980        H985   1.083       .  S
C981        C982   1.407       .  A
C982        F983   1.357       .  S
C987        C988   1.406   1_554  A
C987        C992   1.396       .  A
C987        H994   1.083       .  S
C988        C989   1.410       .  A
C989        C990   1.400       .  A
C989        F996   1.357       .  S
C990        C991   1.406       .  A
C990        H995   1.083       .  S
C991        C992   1.409   1_556  A
C992        F993   1.357       .  S
C997        C998   1.407       .  A
C997       C1002   1.401       .  A
C997       H1004   1.083       .  S
C998        C999   1.410   1_455  A
C999       C1000   1.399       .  A
C999       F1006   1.357       .  S
C1000      C1001   1.407   1_655  A
C1000      H1005   1.083       .  S
C1001      C1002   1.410       .  A
C1002      F1003   1.357       .  S
C1007      C1008   1.404   1_655  A
C1007      C1012   1.399       .  A
C1007      H1014   1.083       .  S
C1008      C1009   1.410       .  A
C1009      C1010   1.402       .  A
C1009      F1016   1.357       .  S
C1010      C1011   1.408       .  A
C1010      H1015   1.083       .  S
C1011      C1012   1.412   1_455  A
C1012      F1013   1.357       .  S
C1017      C1018   1.410   1_655  A
C1017      C1022   1.404       .  A
C1017      H1024   1.083       .  S
C1018      C1019   1.412       .  A
C1019      C1020   1.402       .  A
C1019      F1026   1.357       .  S
C1020      C1021   1.407       .  A
C1020      H1025   1.083       .  S
C1021      C1022   1.411   1_455  A
C1022      F1023   1.357       .  S
C1027      C1028   1.405       .  A
C1027      C1032   1.399       .  A
C1027      H1034   1.083       .  S
C1028      C1029   1.411   1_455  A
C1029      C1030   1.403       .  A
C1029      F1036   1.357       .  S
C1030      C1031   1.408   1_655  A
C1030      H1035   1.083       .  S
C1031      C1032   1.413       .  A
C1032      F1033   1.356       .  S
C1037      C1038   1.406       .  A
C1037      C1042   1.392       .  A
C1037      H1044   1.083       .  S
C1038      C1039   1.407       .  A
C1039      C1040   1.392       .  A
C1039      F1046   1.356       .  S
C1040      C1041   1.404       .  A
C1040      H1045   1.083       .  S
C1041      C1042   1.405       .  A
C1042      F1043   1.358       .  S
C1047      C1048   1.404       .  A
C1047      C1052   1.396       .  A
C1047      H1054   1.083       .  S
C1048      C1049   1.407       .  A
C1049      C1050   1.397       .  A
C1049      F1056   1.358       .  S
C1050      C1051   1.406       .  A
C1050      H1055   1.083       .  S
C1051      C1052   1.407       .  A
C1052      F1053   1.357       .  S
C1057      C1058   1.405       .  A
C1057      C1062   1.397       .  A
C1057      H1064   1.083       .  S
C1058      C1059   1.408       .  A
C1059      C1060   1.397       .  A
C1059      F1066   1.357       .  S
C1060      C1061   1.407       .  A
C1060      H1065   1.083       .  S
C1061      C1062   1.410       .  A
C1062      F1063   1.357       .  S
C1067      C1068   1.402       .  A
C1067      C1072   1.392       .  A
C1067      H1074   1.083       .  S
C1068      C1069   1.407       .  A
C1069      C1070   1.394       .  A
C1069      F1076   1.358       .  S
C1070      C1071   1.405       .  A
C1070      H1075   1.083       .  S
C1071      C1072   1.410       .  A
C1072      F1073   1.357       .  S
C1077      C1078   1.405       .  A
C1077      C1082   1.397       .  A
C1077      H1084   1.083       .  S
C1078      C1079   1.407       .  A
C1079      C1080   1.394       .  A
C1079      F1086   1.357       .  S
C1080      C1081   1.405       .  A
C1080      H1085   1.083       .  S
C1081      C1082   1.409       .  A
C1082      F1083   1.358       .  S
C1087      C1088   1.403       .  A
C1087      C1092   1.393       .  A
C1087      H1094   1.083       .  S
C1088      C1089   1.408       .  A
C1089      C1090   1.390       .  A
C1089      F1096   1.358       .  S
C1090      C1091   1.404       .  A
C1090      H1095   1.083       .  S
C1091      C1092   1.409       .  A
C1092      F1093   1.357       .  S
C1097      C1098   1.405       .  A
C1097      C1102   1.393       .  A
C1097      H1104   1.083       .  S
C1098      C1099   1.411       .  A
C1099      C1100   1.397       .  A
C1099      F1106   1.358       .  S
C1100      C1101   1.405       .  A
C1100      H1105   1.083       .  S
C1101      C1102   1.408       .  A
C1102      F1103   1.357       .  S
C1107      C1108   1.403       .  A
C1107      C1112   1.391       .  A
C1107      H1114   1.083       .  S
C1108      C1109   1.407       .  A
C1109      C1110   1.389       .  A
C1109      F1116   1.357       .  S
C1110      C1111   1.403       .  A
C1110      H1115   1.083       .  S
C1111      C1112   1.410       .  A
C1112      F1113   1.357       .  S
C1117      C1118   1.406       .  A
C1117      C1122   1.401       .  A
C1117      H1124   1.083       .  S
C1118      C1119   1.409       .  A
C1119      C1120   1.399       .  A
C1119      F1126   1.357       .  S
C1120      C1121   1.407       .  A
C1120      H1125   1.083       .  S
C1121      C1122   1.412       .  A
C1122      F1123   1.357       .  S
C1127      C1128   1.407       .  A
C1127      C1132   1.400       .  A
C1127      H1134   1.083       .  S
C1128      C1129   1.409       .  A
C1129      C1130   1.403       .  A
C1129      F1136   1.357       .  S
C1130      C1131   1.407       .  A
C1130      H1135   1.083       .  S
C1131      C1132   1.411       .  A
C1132      F1133   1.358       .  S
C1137      C1138   1.408       .  A
C1137      C1142   1.404       .  A
C1137      H1144   1.083       .  S
C1138      C1139   1.413       .  A
C1139      C1140   1.400       .  A
C1139      F1146   1.357       .  S
C1140      C1141   1.405       .  A
C1140      H1145   1.083       .  S
C1141      C1142   1.411       .  A
C1142      F1143   1.357       .  S
C1147      C1148   1.408       .  A
C1147      C1152   1.405       .  A
C1147      H1154   1.083       .  S
C1148      C1149   1.412       .  A
C1149      C1150   1.403       .  A
C1149      F1156   1.357       .  S
C1150      C1151   1.407       .  A
C1150      H1155   1.083       .  S
C1151      C1152   1.413       .  A
C1152      F1153   1.357       .  S
