geometry optimzed in LAMMPS
_audit_creation_date              2020-11-30 
_audit_creation_method            'lammps2cif' 
_symmetry_space_group_name_H-M    'P1' 
_symmetry_Int_Tables_number       1 
_symmetry_cell_setting            triclinic 
loop_ 
_symmetry_equiv_pos_as_xyz 
  x,y,z 
_cell_length_a                    28.499832782002223 
_cell_length_b                    28.486648773781226 
_cell_length_c                    50.179904672399765 
_cell_angle_alpha                 90.13143815710824 
_cell_angle_beta                  90.7824357937085 
_cell_angle_gamma                 90.40296178723743 
loop_ 
_atom_site_label 
_atom_site_type_symbol 
_atom_site_fract_x 
_atom_site_fract_y 
_atom_site_fract_z 
_atom_site_charge 
C1          C  0.32636159  0.81766763  0.33294835    -0.02750
C2          C  0.31232445  0.82365846  0.21586989    -0.02750
C3          C  0.58903059  0.56167178  0.94357554    -0.02750
C4          C  0.60287429  0.55133266  0.06255569    -0.02750
C5          C  0.69478782  0.64425283  0.33461332    -0.02750
C6          C  0.73213369  0.61796413  0.22058703    -0.02750
O7          O  0.50504130  0.71952385  0.13321408    -0.58080
C8          C  0.50065741  0.76281370  0.21670107     0.74550
O9          O  0.60842450  0.71856544  0.17505581    -0.59240
C10         C  0.54352120  0.71787501  0.12061164     0.74520
C11         C  0.50180520  0.82167134  0.14557712     0.76920
Cd12       Cd  0.54075485  0.75484651  0.17100305     1.37470
O13         O  0.49832111  0.72353481  0.20483927    -0.58070
O14         O  0.47706583  0.78669697  0.15300158    -0.56880
C15         C  0.58602363  0.67917628  0.17569218     0.76880
O16         O  0.54086207  0.83114999  0.15742752    -0.59260
O17         O  0.53646762  0.78945147  0.21367063    -0.57710
O18         O  0.57785501  0.74332261  0.12880432    -0.57700
O19         O  0.54200481  0.67775690  0.17917271    -0.56870
C20         C  0.75707304  0.47569538  0.13668297    -0.02750
C21         C  0.42879712  0.93883445  0.06479672    -0.02750
C22         C  0.44242846  0.90986444  0.94631524    -0.02750
C23         C  0.27378397  0.98558413  0.14159105    -0.02750
C24         C  0.19046926  0.65598529  0.19148869    -0.02750
C25         C  0.22057073  0.64028346  0.30728620    -0.02750
C26         C  0.10626452  0.54367250  0.46872511    -0.02750
C27         C  0.09849654  0.56547708  0.58632757    -0.02750
C28         C  0.24272200  0.48771526  0.38279178    -0.02750
O29         O  0.92700666  0.74912833  0.34098799    -0.58080
C30         C  0.03942823  0.68375993  0.40500055     0.74550
O31         O  0.01668846  0.69797559  0.32074816    -0.59240
C32         C  0.95206196  0.78671703  0.34113806     0.74520
C33         C  0.94797488  0.75265172  0.40386815     0.76920
Cd34       Cd  0.98342469  0.70844643  0.36231168     1.37470
O35         O  0.00009379  0.66403955  0.40002355    -0.58070
O36         O  0.92156556  0.71981498  0.39404178    -0.56880
C37         C  0.02747614  0.65641451  0.32703265     0.76880
O38         O  0.98650668  0.76293616  0.39266537    -0.59260
O39         O  0.05498006  0.71389814  0.38851755    -0.57710
O40         O  0.99623490  0.78470027  0.34540674    -0.57700
O41         O  0.00046352  0.63334499  0.34230795    -0.56870
C42         C  0.82523192  0.80386728  0.19209967    -0.02750
C43         C  0.78787158  0.83139210  0.30999469    -0.02750
C44         C  0.91570221  0.91980460  0.46137679    -0.02750
C45         C  0.93771886  0.90763727  0.57983461    -0.02750
C46         C  0.74775420  0.97219986  0.39220403    -0.02750
C47         C  0.83369768  0.30231336  0.83349734    -0.02750
C48         C  0.80170912  0.33845422  0.71559880    -0.02750
C49         C  0.93122384  0.43532329  0.56391517    -0.02750
C50         C  0.94250605  0.40931762  0.44723066    -0.02750
C51         C  0.76937508  0.48198177  0.63545590    -0.02750
C52         C  0.08028826  0.04614381  0.44038378    -0.02750
C53         C  0.10204024  0.03454277  0.55777036    -0.02750
C54         C  0.20844863  0.17971587  0.83690928    -0.02750
C55         C  0.21452847  0.16072758  0.71763083    -0.02750
C56         C  0.24797650  0.99928475  0.64149079    -0.02750
O57         O  0.04416342  0.17851612  0.62698209    -0.58080
C58         C  0.96718490  0.30603915  0.66466769     0.74550
O59         O  0.06259559  0.24234525  0.68471608    -0.59240
C60         C  0.08502904  0.19273834  0.62054746     0.74520
C61         C  0.99738909  0.26940196  0.59483810     0.76920
Cd62       Cd  0.02451444  0.24459332  0.64495483     1.37460
O63         O  0.95529541  0.26394229  0.65907002    -0.58070
O64         O  0.97378775  0.23709913  0.60628162    -0.56880
C65         C  0.04279082  0.20438662  0.69238002     0.76880
O66         O  0.03322755  0.28645627  0.60707152    -0.59260
O67         O  0.00951133  0.32008015  0.66190268    -0.57710
O68         O  0.10024005  0.23319755  0.62780386    -0.57700
O69         O  0.01054216  0.18601238  0.67779630    -0.56870
C70         C  0.61752465  0.02857503  0.95759967    -0.02750
C71         C  0.59787101  0.06223371  0.07367629    -0.02750
C72         C  0.69965963  0.16112533  0.68682503    -0.02750
C73         C  0.71598174  0.13123235  0.80373974    -0.02750
C74         C  0.41183786  0.44874051  0.96523108    -0.02750
C75         C  0.43910996  0.41931858  0.08251096    -0.02750
O76         O  0.53853109  0.28013731  0.91655340    -0.58080
C77         C  0.56162010  0.24622504  0.83003201     0.74550
O78         O  0.52842411  0.17549631  0.87835804    -0.59240
C79         C  0.49521227  0.28197769  0.92218272     0.74520
C80         C  0.48257892  0.33454207  0.85581952     0.76920
Cd81       Cd  0.51998853  0.25654907  0.87427327     1.37460
O82         O  0.57219758  0.28235448  0.84401916    -0.58070
O83         O  0.52639536  0.33550691  0.86086592    -0.56880
C84         C  0.56790128  0.18169504  0.89043331     0.76880
O85         O  0.45837839  0.29751263  0.86050131    -0.59260
O86         O  0.52158732  0.22586575  0.83208439    -0.57710
O87         O  0.46497007  0.25866329  0.90845143    -0.57700
O88         O  0.58405292  0.22310803  0.89322384    -0.56870
C89         C  0.34352659  0.32048125  0.69379574    -0.02750
C90         C  0.31775398  0.34744806  0.81409808    -0.02750
C91         C  0.25337662  0.49257152  0.88393124    -0.02750
C92         C  0.76690139  0.98130158  0.88229327    -0.02750
C93         C  0.58396358  0.93303199  0.57058971    -0.02750
C94         C  0.57081532  0.90204496  0.45008394    -0.02750
C95         C  0.42840857  0.55268732  0.43487238    -0.02750
C96         C  0.42178919  0.54679782  0.55164910    -0.02750
C97         C  0.69038083  0.81057382  0.82245341    -0.02750
C98         C  0.73889306  0.82690834  0.70947032    -0.02750
C99         C  0.32725423  0.67208619  0.83745546    -0.02750
C100        C  0.32101492  0.65077993  0.71772725    -0.02750
C101        C  0.28124166  0.49704453  0.63594698    -0.02750
O102        O  0.53273363  0.64471475  0.60178751    -0.58080
C103        C  0.65422257  0.66473545  0.65929895     0.74550
O104        O  0.57749977  0.75092411  0.64936367    -0.59240
C105        C  0.50341379  0.67856387  0.60009323     0.74520
C106        C  0.51142591  0.65260718  0.68217213     0.76920
Cd107      Cd  0.56975092  0.67115251  0.64197751     1.37460
O108        O  0.65100670  0.66475096  0.63409760    -0.58070
O109        O  0.52590042  0.61896616  0.66771248    -0.56880
C110        C  0.59383868  0.75629433  0.62598786     0.76880
O111        O  0.53220492  0.69222394  0.68145531    -0.59260
O112        O  0.62705814  0.63717689  0.67155607    -0.57710
O113        O  0.50187452  0.70690742  0.61943350    -0.57700
O114        O  0.60493306  0.72063801  0.61247633    -0.56870
C115        C  0.76074817  0.98243598  0.63096127    -0.02750
C116        C  0.60257468  0.44760524  0.46429008    -0.02750
C117        C  0.58448293  0.42431854  0.58415202    -0.02750
C118        C  0.41301245  0.03430015  0.46599950    -0.02750
C119        C  0.42643693  0.06245993  0.58332240    -0.02750
C120        C  0.68960201  0.29988472  0.19213631    -0.02750
C121        C  0.71055452  0.31617731  0.31419122    -0.02750
C122        C  0.30467660  0.15359533  0.31120757    -0.02750
C123        C  0.34471539  0.16571828  0.19532369    -0.02750
C124        C  0.26007230  0.99890660  0.38410407    -0.02750
O125        O  0.57927143  0.20388459  0.38095576    -0.58080
C126        C  0.47676047  0.19682747  0.45675444     0.74550
O127        O  0.54526511  0.27900448  0.43292711    -0.59240
C128        C  0.56528609  0.24135178  0.36930536     0.74520
C129        C  0.46261405  0.18800631  0.38180317     0.76920
Cd130      Cd  0.52859651  0.21529280  0.41437022     1.37470
O131        O  0.51035069  0.17100235  0.44872476    -0.58070
O132        O  0.49349552  0.15757553  0.38838642    -0.56880
C133        C  0.58303827  0.26542756  0.44416439     0.76880
O134        O  0.46532856  0.22966090  0.39078379    -0.59260
O135        O  0.46704214  0.23422260  0.44413635    -0.57710
O136        O  0.53599740  0.26801461  0.38069170    -0.57700
O137        O  0.59906835  0.22433046  0.44001405    -0.56870
C138        C  0.76523331  0.47689423  0.39241138    -0.02750
C139        C  0.16681105  0.31227475  0.32411622    -0.02750
C140        C  0.21503679  0.32745613  0.20824347    -0.02750
C141        C  0.08341265  0.41507421  0.94120700    -0.02750
C142        C  0.10702004  0.44122907  0.05840899    -0.02750
O143        O  0.94536540  0.17563754  0.13319142    -0.58080
C144        C  0.09176026  0.23018134  0.14899392     0.74550
O145        O  0.99713611  0.30772691  0.12697796    -0.59240
C146        C  0.91920872  0.20301817  0.11956307     0.74520
C147        C  0.97221208  0.23660613  0.19734158     0.76920
Cd148      Cd  0.99681102  0.23576016  0.14630828     1.37470
O149        O  0.07086856  0.19431951  0.13900725    -0.58070
O150        O  0.99578361  0.20253662  0.18840405    -0.56880
C151        C  0.02446993  0.29245726  0.10902764     0.76880
O152        O  0.97473291  0.27621538  0.18579070    -0.59260
O153        O  0.06754399  0.26322211  0.15833017    -0.57710
O154        O  0.92439896  0.24683419  0.12228231    -0.57700
O155        O  0.02725040  0.24871101  0.10444817    -0.56870
C156        C  0.26027912  0.48472531  0.13605997    -0.02750
C157        C  0.92908178  0.06346977  0.94733176    -0.02750
C158        C  0.92354597  0.04459789  0.06535080    -0.02750
C159        C  0.81009124  0.13374031  0.21952635    -0.02750
C160        C  0.82489361  0.14827869  0.33996886    -0.02750
C161        C  0.77073390  0.98490337  0.13481969    -0.02750
C162        C  0.19567440  0.81403031  0.69662262    -0.02750
C163        C  0.20864774  0.84089114  0.81596582    -0.02750
C164        C  0.84170696  0.65142645  0.69357995    -0.02750
C165        C  0.80008317  0.63366670  0.80819475    -0.02750
C166        C  0.93792426  0.55226946  0.09037522    -0.02750
C167        C  0.91922501  0.53625228  0.97303745    -0.02750
C168        C  0.77008340  0.48355724  0.89206862    -0.02750
O169        O  0.94976310  0.72692856  0.88911339    -0.58080
C170        C  0.07314760  0.79647384  0.91352848     0.74550
O171        O  0.02713233  0.68313781  0.94408087    -0.59240
C172        C  0.94554894  0.68365141  0.88341514     0.74520
C173        C  0.06157407  0.72491292  0.85679744     0.76920
Cd174      Cd  0.02263751  0.71977851  0.90335579     1.37460
O175        O  0.03191899  0.79943356  0.90375019    -0.58070
O176        O  0.02077817  0.74164450  0.85919131    -0.56880
C177        C  0.99107457  0.70523523  0.95228217     0.76880
O178        O  0.07522358  0.69136576  0.87203306    -0.59260
O179        O  0.09064156  0.75627545  0.91816328    -0.57710
O180        O  0.97820300  0.65534220  0.88988315    -0.57700
O181        O  0.97683035  0.74102499  0.93961703    -0.56870
C182        C  0.09210756  0.92507202  0.08532751    -0.02750
C183        C  0.11584148  0.96644790  0.96766378    -0.02750
C184        C  0.27045714  0.99908734  0.89068424    -0.02750
C185        C  0.51741506  0.73981895  0.88446199    -0.02750
C186        C  0.01698099  0.23103896  0.88836248    -0.02750
C187        C  0.00565744  0.22783111  0.39211533    -0.02750
C188        C  0.01822940  0.73943609  0.64445974    -0.02750
C189        C  0.01120724  0.74157592  0.13718465    -0.02750
C190        C  0.51504834  0.23222489  0.12863073    -0.02750
C191        C  0.51175684  0.73183961  0.38340886    -0.02750
C192        C  0.51342839  0.23868085  0.63790634    -0.02750
C193        C  0.15132842  0.01544635  0.92965862    -0.09420
C194        C  0.15971860  0.99269627  0.95451518     0.06780
C195        C  0.20853568  0.98246463  0.95946480    -0.03190
C196        C  0.24329345  0.99331399  0.94063893    -0.07640
C197        C  0.23243440  0.00387174  0.91377508     0.05890
C198        C  0.18488504  0.01775969  0.90915562    -0.02660
Br199      Br  0.15987938  0.03309846  0.87443855    -0.02360
H200        H  0.11609485  0.02570987  0.92423834     0.09800
H201        H  0.27936532  0.98926804  0.94693199     0.07820
Br202      Br  0.23562075  0.95026970  0.98933383    -0.02790
C203        C  0.08334550  0.91822842  0.00690835    -0.09420
C204        C  0.11485249  0.95415006  0.99813432     0.06780
C205        C  0.14001705  0.97743876  0.01848587    -0.03190
C206        C  0.13535440  0.96294746  0.04484160    -0.07640
C207        C  0.10791163  0.92410882  0.05429614     0.05890
C208        C  0.08298547  0.90060000  0.03333320    -0.02660
Br209      Br  0.05425056  0.83991156  0.03661162    -0.02360
H210        H  0.06149735  0.90009507  0.99235592     0.09800
H211        H  0.14931355  0.98811888  0.05859730     0.07820
Br212      Br  0.17612720  0.03449969  0.01474549    -0.02790
C213        C  0.09813970  0.83521282  0.10040474    -0.09420
C214        C  0.06970777  0.87522301  0.09522516     0.06780
C215        C  0.02076435  0.86490469  0.09781204    -0.03190
C216        C  0.00370211  0.82368575  0.11079455    -0.07640
C217        C  0.03198320  0.78469176  0.11845748     0.05890
C218        C  0.07988786  0.79060758  0.10957041    -0.02660
Br219      Br  0.12205816  0.73859687  0.10577533    -0.02360
H220        H  0.13512979  0.83779366  0.09596273     0.09800
H221        H  0.96637235  0.82180770  0.11268179     0.07820
Br222      Br  0.97429657  0.89430586  0.07582605    -0.02790
C223        C  0.09707714  0.92173292  0.92487647    -0.09420
C224        C  0.11571583  0.91994505  0.95133414     0.06780
C225        C  0.13361722  0.87540042  0.96018258    -0.03190
C226        C  0.12395098  0.83561875  0.94521075    -0.07640
C227        C  0.09752224  0.83824356  0.92185392     0.05890
C228        C  0.08688098  0.88148739  0.91051870    -0.02660
Br229      Br  0.05967923  0.88756351  0.87540821    -0.02360
H230        H  0.08698290  0.95439057  0.91570577     0.09800
H231        H  0.13380048  0.80162652  0.95312164     0.07820
Br232      Br  0.16895014  0.85976832  0.99195652    -0.02790
C233        C  0.88523296  0.51822190  0.92701551    -0.09420
C234        C  0.87616196  0.52231178  0.95457627     0.06780
C235        C  0.83041769  0.50609570  0.96246633    -0.03190
C236        C  0.79661127  0.49332770  0.94274893    -0.07640
C237        C  0.80817466  0.48972917  0.91537004     0.05890
C238        C  0.85687387  0.48914466  0.91117171    -0.02660
Br239      Br  0.88538411  0.42783790  0.91151883    -0.02360
H240        H  0.91957637  0.52656202  0.91945810     0.09800
H241        H  0.76166882  0.48475740  0.94934571     0.07820
Br242      Br  0.80890656  0.49598530  0.99816436    -0.02790
C243        C  0.90685912  0.62152695  0.95794332    -0.09420
C244        C  0.93470967  0.58800900  0.97100557     0.06780
C245        C  0.97322222  0.60488717  0.98720230    -0.03190
C246        C  0.98425449  0.65223447  0.98833600    -0.07640
C247        C  0.96097648  0.68293193  0.97149102     0.05890
C248        C  0.91751047  0.66908776  0.96054452    -0.02660
Br249      Br  0.87353424  0.71412317  0.94756415    -0.02360
H250        H  0.87441406  0.61161788  0.94822511     0.09800
H251        H  0.01666918  0.66333887  0.99809862     0.07820
Br252      Br  0.01418023  0.56558694  0.00741517    -0.02790
C253        C  0.91118535  0.58201092  0.04320921    -0.09420
C254        C  0.92546540  0.54502313  0.05974955     0.06780
C255        C  0.92228360  0.49916428  0.04745587    -0.03190
C256        C  0.92151317  0.49470941  0.01958659    -0.07640
C257        C  0.90790842  0.53262095  0.00354188     0.05890
C258        C  0.89212326  0.57271352  0.01805143    -0.02660
Br259      Br  0.84355233  0.61460260  0.00591103    -0.02360
H260        H  0.90645359  0.61689879  0.05088624     0.09800
H261        H  0.92669463  0.46043831  0.01120390     0.07820
Br262      Br  0.90567766  0.44189977  0.06530574    -0.02790
C263        C  0.97071670  0.64101930  0.08441774    -0.09420
C264        C  0.94778748  0.60637507  0.10060786     0.06780
C265        C  0.94052356  0.62314886  0.12733567    -0.03190
C266        C  0.95988941  0.66604506  0.13669812    -0.07640
C267        C  0.98754149  0.69738207  0.12141977     0.05890
C268        C  0.98959743  0.68475605  0.09397154    -0.02660
Br269      Br  0.01656891  0.72380123  0.06715260    -0.02360
H270        H  0.97659548  0.63404333  0.06361482     0.09800
H271        H  0.95513701  0.67421019  0.15757947     0.07820
Br272      Br  0.90295381  0.59531763  0.15455382    -0.02790
C273        C  0.77407380  0.60357701  0.85372413    -0.09420
C274        C  0.77903438  0.59217501  0.82634055     0.06780
C275        C  0.76947914  0.54371470  0.82093847    -0.03190
C276        C  0.76109069  0.51197778  0.84236655    -0.07640
C277        C  0.77420038  0.52262864  0.86928589     0.05890
C278        C  0.78506330  0.57099851  0.87343157    -0.02660
Br279      Br  0.82234324  0.59856060  0.90168859    -0.02360
H280        H  0.77276448  0.63970805  0.85999057     0.09800
H281        H  0.74776694  0.47749086  0.83752619     0.07820
Br282      Br  0.76152438  0.51662374  0.78655462    -0.02790
C283        C  0.83730916  0.68841141  0.84302338    -0.09420
C284        C  0.84169776  0.64875203  0.82620351     0.06780
C285        C  0.87967927  0.61769612  0.83132134    -0.03190
C286        C  0.91138792  0.62782674  0.85176956    -0.07640
C287        C  0.90659758  0.66854354  0.86713357     0.05890
C288        C  0.86878399  0.69869088  0.86283445    -0.02660
Br289      Br  0.85527284  0.75457960  0.88311189    -0.02360
H290        H  0.80650113  0.70976610  0.84350106     0.09800
H291        H  0.94131180  0.60504250  0.85464377     0.07820
Br292      Br  0.89363355  0.56381304  0.80968060    -0.02790
C293        C  0.87425788  0.63786807  0.74124528    -0.09420
C294        C  0.83918715  0.62801043  0.72222501     0.06780
C295        C  0.79570659  0.60991748  0.73263219    -0.03190
C296        C  0.78659951  0.61042865  0.75995271    -0.07640
C297        C  0.81922300  0.62544524  0.77907284     0.05890
C298        C  0.86389639  0.64185586  0.76854291    -0.02660
Br299      Br  0.90995819  0.68273155  0.78570947    -0.02360
H300        H  0.90792970  0.65043128  0.73461783     0.09800
H301        H  0.75110589  0.60323135  0.76624416     0.07820
Br302      Br  0.74179278  0.58930858  0.71253861    -0.02790
C303        C  0.91458372  0.70881932  0.69475846    -0.09420
C304        C  0.89222101  0.66877300  0.68290164     0.06780
C305        C  0.91465501  0.65315520  0.65882694    -0.03190
C306        C  0.95827720  0.67118827  0.65128391    -0.07640
C307        C  0.97735929  0.71384652  0.66077475     0.05890
C308        C  0.95317111  0.73299756  0.68306516    -0.02660
Br309      Br  0.96822381  0.79316391  0.69829385    -0.02360
H310        H  0.89911321  0.72452559  0.71214184     0.09800
H311        H  0.97403538  0.65299150  0.63522627     0.07820
Br312      Br  0.88894433  0.61697597  0.62906644    -0.02790
C313        C  0.13423102  0.76565304  0.86088709    -0.09420
C314        C  0.09585545  0.75504139  0.84463271     0.06780
C315        C  0.08568088  0.78354595  0.82262597    -0.03190
C316        C  0.11876829  0.81691306  0.81468087    -0.07640
C317        C  0.16189652  0.82286087  0.82890837     0.05890
C318        C  0.16455221  0.80157573  0.85489377    -0.02660
Br319      Br  0.21622294  0.80553521  0.88025591    -0.02360
H320        H  0.14093821  0.74575804  0.87887186     0.09800
H321        H  0.11158761  0.83239910  0.79581104     0.07820
Br322      Br  0.03129712  0.77283399  0.80034778    -0.02790
C323        C  0.19445236  0.90639379  0.85121816    -0.09420
C324        C  0.22300811  0.88902432  0.83055707     0.06780
C325        C  0.26572397  0.91474793  0.82736058    -0.03190
C326        C  0.28138730  0.94756269  0.84710729    -0.07640
C327        C  0.25394748  0.96008267  0.86950822     0.05890
C328        C  0.21300144  0.93271117  0.87227310    -0.02660
Br329      Br  0.19548194  0.90737474  0.90563795    -0.02360
H330        H  0.15951198  0.89320961  0.85444983     0.09800
H331        H  0.31582419  0.96321187  0.84488102     0.07820
Br332      Br  0.30208004  0.91222521  0.79547422    -0.02790
C333        C  0.16559672  0.85110855  0.74130412    -0.09420
C334        C  0.19985458  0.82403246  0.72769108     0.06780
C335        C  0.24277556  0.81917236  0.74231209    -0.03190
C336        C  0.24349911  0.82281570  0.76979195    -0.07640
C337        C  0.20717143  0.84381809  0.78440726     0.05890
C338        C  0.17221667  0.86547690  0.76834280    -0.02660
Br339      Br  0.13699196  0.91806444  0.78118217    -0.02360
H340        H  0.13600967  0.86505597  0.73029424     0.09800
H341        H  0.27645368  0.81421945  0.77920957     0.07820
Br342      Br  0.30474129  0.83128407  0.72922582    -0.02790
C343        C  0.11566901  0.76514079  0.70135150    -0.09420
C344        C  0.14100985  0.80284311  0.68962850     0.06780
C345        C  0.11087595  0.83073859  0.67370552    -0.03190
C346        C  0.06867483  0.81220209  0.66282501    -0.07640
C347        C  0.05574293  0.76405737  0.66488779     0.05890
C348        C  0.07693912  0.74290479  0.68795120    -0.02660
Br349      Br  0.05610055  0.68427483  0.70276947    -0.02360
H350        H  0.12845532  0.74999362  0.71982755     0.09800
H351        H  0.04501574  0.83726016  0.65412896     0.07820
Br352      Br  0.11304170  0.89709335  0.67494224    -0.02790
C353        C  0.91942567  0.15440240  0.34377914    -0.09420
C354        C  0.87429297  0.16116043  0.35473495     0.06780
C355        C  0.87589778  0.18535698  0.38014448    -0.03190
C356        C  0.91726505  0.20528585  0.39058041    -0.07640
C357        C  0.96148666  0.20114660  0.37865117     0.05890
C358        C  0.96182177  0.16724934  0.35766878    -0.02660
Br359      Br  0.01606254  0.12975516  0.35031341    -0.02360
H360        H  0.92306096  0.13890725  0.32455404     0.09800
H361        H  0.91425698  0.22330830  0.40942925     0.07820
Br362      Br  0.82476958  0.19562588  0.40409361    -0.02790
C363        C  0.83512407  0.09469851  0.26522941    -0.09420
C364        C  0.80487119  0.12446252  0.25058269     0.06780
C365        C  0.77435136  0.15058204  0.26676699    -0.03190
C366        C  0.78578513  0.15927494  0.29320650    -0.07640
C367        C  0.82253899  0.13711537  0.30816102     0.05890
C368        C  0.84558248  0.10132268  0.29303266    -0.02660
Br369      Br  0.89264817  0.06007514  0.30669644    -0.02360
H370        H  0.85067491  0.06570173  0.25488197     0.09800
H371        H  0.75967496  0.18030159  0.30275300     0.07820
Br372      Br  0.71103622  0.16979416  0.25780436    -0.02790
C373        C  0.83608987  0.07780682  0.18131387    -0.09420
C374        C  0.80227498  0.08939929  0.20070347     0.06780
C375        C  0.76145679  0.06051696  0.20012055    -0.03190
C376        C  0.75175236  0.03060381  0.17812189    -0.07640
C377        C  0.78395693  0.02309796  0.15707960     0.05890
C378        C  0.82871677  0.04375789  0.16155990    -0.02660
Br379      Br  0.88550422  0.01339932  0.15340461    -0.02360
H380        H  0.87108287  0.09239870  0.18217443     0.09800
H381        H  0.71913500  0.01107077  0.17817043     0.07820
Br382      Br  0.71700213  0.05926614  0.22838846    -0.02790
C383        C  0.00402657  0.00764840  0.05454383    -0.09420
C384        C  0.97232055  0.02269690  0.07405423     0.06780
C385        C  0.98864672  0.01466009  0.10101358    -0.03190
C386        C  0.02514032  0.98152818  0.10603450    -0.07640
C387        C  0.05508213  0.96747307  0.08521846     0.05890
C388        C  0.04924444  0.99654070  0.06250106    -0.02660
Br389      Br  0.08623755  0.05347604  0.06356468    -0.02360
H390        H  0.99842488  0.01288976  0.03348623     0.09800
H391        H  0.02956964  0.96884626  0.12587280     0.07820
Br392      Br  0.97781901  0.05705174  0.12969446    -0.02790
C393        C  0.88601281  0.97502465  0.09151011    -0.09420
C394        C  0.88056912  0.01293841  0.07415512     0.06780
C395        C  0.83295975  0.02512859  0.06864039    -0.03190
C396        C  0.79749098  0.01037206  0.08601468    -0.07640
C397        C  0.80612533  0.98371230  0.10951340     0.05890
C398        C  0.84921325  0.95771122  0.10718699    -0.02660
Br399      Br  0.86524302  0.89740187  0.12138776    -0.02360
H400        H  0.91963540  0.95975387  0.09448733     0.09800
H401        H  0.76362943  0.02227222  0.08056410     0.07820
Br402      Br  0.81381870  0.07207914  0.04310071    -0.02790
C403        C  0.01481603  0.06090786  0.96328487    -0.09420
C404        C  0.97716485  0.03673201  0.95058272     0.06780
C405        C  0.98767247  0.99051130  0.94243568    -0.03190
C406        C  0.02614237  0.96747895  0.95412002    -0.07640
C407        C  0.06696952  0.99267157  0.96297702     0.05890
C408        C  0.05953318  0.04148971  0.96714911    -0.02660
Br409      Br  0.10678835  0.08750313  0.97509423    -0.02360
H410        H  0.01092177  0.09741548  0.96823780     0.09800
H411        H  0.02630655  0.92977289  0.95203480     0.07820
Br412      Br  0.97272365  0.96709163  0.90729536    -0.02790
C413        C  0.89938863  0.01498560  0.01747401    -0.09420
C414        C  0.92134200  0.04973002  0.03375403     0.06780
C415        C  0.93839124  0.08912097  0.01941924    -0.03190
C416        C  0.91932113  0.09893026  0.99442058    -0.07640
C417        C  0.90813288  0.06330617  0.97667455     0.05890
C418        C  0.89017343  0.02241587  0.98996034    -0.02660
Br419      Br  0.82893850  0.99776621  0.98122548    -0.02360
H420        H  0.88488434  0.98373544  0.02649901     0.09800
H421        H  0.88777418  0.11915563  0.99740013     0.07820
Br422      Br  0.00144914  0.11149474  0.02183444    -0.02790
C423        C  0.95955306  0.10887306  0.90631713    -0.09420
C424        C  0.94604604  0.11240494  0.93345426     0.06780
C425        C  0.95634660  0.15818094  0.94501112    -0.03190
C426        C  0.98568006  0.19092418  0.93189554    -0.07640
C427        C  0.99478072  0.18864804  0.90450877     0.05890
C428        C  0.97848134  0.14671990  0.89158143    -0.02660
Br429      Br  0.98614407  0.13538059  0.85406416    -0.02360
H430        H  0.95401459  0.07601239  0.89584669     0.09800
H431        H  0.99523797  0.22256285  0.94252922     0.07820
Br432      Br  0.92337165  0.19145932  0.97237547    -0.02790
C433        C  0.93452691  0.18686866  0.22970003    -0.09420
C434        C  0.93050956  0.22396273  0.21148207     0.06780
C435        C  0.89148766  0.22526278  0.19427965    -0.03190
C436        C  0.86319801  0.18610644  0.19191315    -0.07640
C437        C  0.86016225  0.15449195  0.21344778     0.05890
C438        C  0.90128478  0.15037660  0.22961126    -0.02660
Br439      Br  0.93038633  0.09041738  0.23492586    -0.02360
H440        H  0.96803630  0.18141318  0.23968842     0.09800
H441        H  0.83593185  0.18705873  0.17683532     0.07820
Br442      Br  0.87496888  0.27937989  0.17326465    -0.02790
C443        C  0.87828916  0.10146641  0.09708644    -0.09420
C444        C  0.91606226  0.09356939  0.07915958     0.06780
C445        C  0.94328961  0.13382294  0.07316254    -0.03190
C446        C  0.92312182  0.17805356  0.07589169    -0.07640
C447        C  0.89271595  0.18384257  0.09724125     0.05890
C448        C  0.86431701  0.14633041  0.10400061    -0.02660
Br449      Br  0.81151875  0.15544005  0.12638248    -0.02360
H450        H  0.85961271  0.07359318  0.10675684     0.09800
H451        H  0.94511767  0.20792430  0.07080596     0.07820
Br452      Br  0.00869632  0.13613283  0.08323436    -0.02790
C453        C  0.02607058  0.44957647  0.08153774    -0.09420
C454        C  0.06174138  0.47002091  0.06627982     0.06780
C455        C  0.05863686  0.51928910  0.06298804    -0.03190
C456        C  0.02365828  0.54481419  0.07602816    -0.07640
C457        C  0.98675382  0.52445518  0.09132430     0.05890
C458        C  0.99337564  0.47516628  0.09607047    -0.02660
Br459      Br  0.96974040  0.43531331  0.12388261    -0.02360
H460        H  0.02408932  0.41214201  0.08343911     0.09800
H461        H  0.02591049  0.58151131  0.07273305     0.07820
Br462      Br  0.10699456  0.55654768  0.04613667    -0.02790
C463        C  0.23321964  0.46117243  0.08695349    -0.09420
C464        C  0.22139944  0.47441187  0.11370270     0.06780
C465        C  0.17355267  0.48671008  0.11633132    -0.03190
C466        C  0.14526119  0.49228157  0.09406839    -0.07640
C467        C  0.15207928  0.46584456  0.07069143     0.05890
C468        C  0.19901880  0.45073358  0.06726306    -0.02660
Br469      Br  0.22140097  0.41501872  0.03767686    -0.02360
H470        H  0.26881315  0.45674963  0.08062763     0.09800
H471        H  0.11229436  0.50773321  0.09860350     0.07820
Br472      Br  0.13676899  0.49581900  0.14714786    -0.02790
C473        C  0.10435235  0.39274035  0.10052976    -0.09420
C474        C  0.10841925  0.39275976  0.07257029     0.06780
C475        C  0.10436724  0.34804087  0.06007728    -0.03190
C476        C  0.07550050  0.31461951  0.07191698    -0.07640
C477        C  0.05754115  0.32368865  0.09720269     0.05890
C478        C  0.07776538  0.35941240  0.11289763    -0.02660
Br479      Br  0.06727037  0.36930074  0.15041016    -0.02360
H480        H  0.11136775  0.42263588  0.11254699     0.09800
H481        H  0.06727723  0.28211889  0.06155539     0.07820
Br482      Br  0.14005399  0.32733726  0.03005868    -0.02790
C483        C  0.95770964  0.45643040  0.96317509    -0.09420
C484        C  0.96180995  0.50539281  0.96311445     0.06780
C485        C  0.00260139  0.52282266  0.94978904    -0.03190
C486        C  0.04121671  0.49426737  0.94588681    -0.07640
C487        C  0.03728190  0.44530702  0.94424444     0.05890
C488        C  0.99267217  0.42691190  0.95301927    -0.02660
Br489      Br  0.97318229  0.36265413  0.95398757    -0.02360
H490        H  0.92500099  0.44075046  0.96947165     0.09800
H491        H  0.07419243  0.51196652  0.94324634     0.07820
Br492      Br  0.00780137  0.57928631  0.92924815    -0.02790
C493        C  0.13314399  0.45847803  0.01053955    -0.09420
C494        C  0.10315040  0.43484809  0.02776562     0.06780
C495        C  0.06817648  0.40584739  0.01545232    -0.03190
C496        C  0.07309553  0.39145929  0.98919264    -0.07640
C497        C  0.10104597  0.41588311  0.97104288     0.05890
C498        C  0.13051207  0.45221505  0.98280090    -0.02660
Br499      Br  0.16568840  0.50039713  0.96512894    -0.02360
H500        H  0.15728108  0.48448405  0.01856745     0.09800
H501        H  0.04976150  0.36438776  0.98240701     0.07820
Br502      Br  0.01127703  0.38332301  0.03135835    -0.02790
C503        C  0.07934107  0.32166160  0.93955735    -0.09420
C504        C  0.06939693  0.36600777  0.92801224     0.06780
C505        C  0.04599574  0.36400850  0.90282715    -0.03190
C506        C  0.03102826  0.32115448  0.89156500    -0.07640
C507        C  0.03642025  0.27664780  0.90407497     0.05890
C508        C  0.06542567  0.27822448  0.92763097    -0.02660
Br509      Br  0.09246128  0.22441804  0.94441453    -0.02360
H510        H  0.09934180  0.32004627  0.95794366     0.09800
H511        H  0.01499878  0.32371186  0.87202889     0.07820
Br512      Br  0.02949045  0.41851533  0.88229947    -0.02790
C513        C  0.27710331  0.38476884  0.18856937    -0.09420
C514        C  0.22988736  0.37587588  0.19568939     0.06780
C515        C  0.19951445  0.41483172  0.19259996    -0.03190
C516        C  0.21490009  0.45483852  0.17852142    -0.07640
C517        C  0.25488438  0.45401294  0.16260715     0.05890
C518        C  0.29009803  0.42429354  0.17380009    -0.02660
Br519      Br  0.35554618  0.44079487  0.17699314    -0.02360
H520        H  0.30512724  0.36257505  0.19565939     0.09800
H521        H  0.19837584  0.48791049  0.18220285     0.07820
Br522      Br  0.13826114  0.41768998  0.20775668    -0.02790
C523        C  0.15251798  0.21952736  0.17819444    -0.09420
C524        C  0.14173590  0.23424701  0.15277340     0.06780
C525        C  0.16029334  0.27721888  0.14448013    -0.03190
C526        C  0.17332126  0.31151286  0.16325631    -0.07640
C527        C  0.17872462  0.29961497  0.19058172     0.05890
C528        C  0.16720842  0.25180353  0.19735936    -0.02660
Br529      Br  0.17586423  0.22290226  0.23095935    -0.02360
H530        H  0.14133931  0.18472363  0.18434642     0.09800
H531        H  0.18582864  0.34463195  0.15561022     0.07820
Br532      Br  0.17205226  0.28661742  0.10757230    -0.02790
C533        C  0.21051360  0.35074675  0.28473173    -0.09420
C534        C  0.16846172  0.32817369  0.29343501     0.06780
C535        C  0.13493012  0.32053623  0.27267267    -0.03190
C536        C  0.14869988  0.32299559  0.24542554    -0.07640
C537        C  0.19519270  0.33587507  0.23758486     0.05890
C538        C  0.22085818  0.35943731  0.25792292    -0.02660
Br539      Br  0.27269646  0.40176345  0.25196584    -0.02360
H540        H  0.23671762  0.36238371  0.29907339     0.09800
H541        H  0.12259940  0.31398177  0.23039739     0.07820
Br542      Br  0.06968929  0.31234038  0.27940229    -0.02790
C543        C  0.10269594  0.24798097  0.33872666    -0.09420
C544        C  0.11828081  0.29558159  0.33889991     0.06780
C545        C  0.09324660  0.32111874  0.35941294    -0.03190
C546        C  0.06097773  0.29815095  0.37657488    -0.07640
C547        C  0.04114017  0.25287705  0.37143455     0.05890
C548        C  0.05769657  0.23354287  0.34748472    -0.02660
Br549      Br  0.01332425  0.23227111  0.31826816    -0.02360
H550        H  0.12858633  0.22077016  0.33929009     0.09800
H551        H  0.05128396  0.31724336  0.39409939     0.07820
Br552      Br  0.09721402  0.38624693  0.36911515    -0.02790
C553        C  0.29082366  0.22069882  0.22191007    -0.09420
C554        C  0.30810276  0.20645525  0.19697992     0.06780
C555        C  0.29315098  0.23391290  0.17500008    -0.03190
C556        C  0.27046245  0.27689463  0.17960413    -0.07640
C557        C  0.25763120  0.29252358  0.20573643     0.05890
C558        C  0.27490922  0.26529647  0.22671673    -0.02660
Br559      Br  0.29564626  0.28775756  0.26019887    -0.02360
H560        H  0.29098712  0.19843832  0.23902492     0.09800
H561        H  0.26092834  0.29736636  0.16233587     0.07820
Br562      Br  0.30354879  0.21691223  0.13849601    -0.02790
C563        C  0.43538999  0.24366084  0.15432051    -0.09420
C564        C  0.47335873  0.21395971  0.14799930     0.06780
C565        C  0.47225010  0.17011912  0.16222765    -0.03190
C566        C  0.43172852  0.15536464  0.17701512    -0.07640
C567        C  0.39271795  0.18511203  0.18178346     0.05890
C568        C  0.40101099  0.23255062  0.17326778    -0.02660
Br569      Br  0.38116466  0.28839823  0.19177287    -0.02360
H570        H  0.43378649  0.27884288  0.14689914     0.09800
H571        H  0.43092518  0.12015897  0.18508783     0.07820
Br572      Br  0.52444690  0.12807356  0.16266534    -0.02790
C573        C  0.22776811  0.19433711  0.30078598    -0.09420
C574        C  0.27426847  0.19984187  0.30971094     0.06780
C575        C  0.28639491  0.24597001  0.31910720    -0.03190
C576        C  0.25118495  0.27793175  0.32604465    -0.07640
C577        C  0.20268235  0.26985240  0.32109987     0.05890
C578        C  0.19284111  0.22777070  0.30553989    -0.02660
Br579      Br  0.13427313  0.20916335  0.28839184    -0.02360
H580        H  0.21792498  0.16196352  0.29073393     0.09800
H581        H  0.26355167  0.31166403  0.33289372     0.07820
Br582      Br  0.34905932  0.27297230  0.32048504    -0.02790
C583        C  0.35743057  0.17933969  0.27201117    -0.09420
C584        C  0.32415510  0.14569098  0.28160073     0.06780
C585        C  0.31729661  0.10732820  0.26353509    -0.03190
C586        C  0.33027447  0.11190396  0.23658161    -0.07640
C587        C  0.35535302  0.14951421  0.22563203     0.05890
C588        C  0.37558878  0.17920866  0.24569748    -0.02660
Br589      Br  0.42819339  0.21960345  0.23968867    -0.02360
H590        H  0.37146076  0.20537865  0.28547278     0.09800
H591        H  0.31860483  0.08585106  0.22367472     0.07820
Br592      Br  0.30722307  0.04253329  0.27262223    -0.02790
C593        C  0.34374083  0.18503779  0.35317903    -0.09420
C594        C  0.34839654  0.15828617  0.32979504     0.06780
C595        C  0.39210424  0.13425597  0.32670166    -0.03190
C596        C  0.42927322  0.14418178  0.34412017    -0.07640
C597        C  0.42375857  0.17608715  0.36483824     0.05890
C598        C  0.38035033  0.19599237  0.36968519    -0.02660
Br599      Br  0.36726172  0.24095579  0.39733662    -0.02360
H600        H  0.31225594  0.20238566  0.35803011     0.09800
H601        H  0.46287347  0.12735308  0.34135349     0.07820
Br602      Br  0.40729874  0.08670728  0.30114695    -0.02790
C603        C  0.26018899  0.08732333  0.37239616    -0.09420
C604        C  0.25686424  0.04077849  0.36327067     0.06780
C605        C  0.24290098  0.03774773  0.33575053    -0.03190
C606        C  0.25174338  0.07589399  0.31817851    -0.07640
C607        C  0.27299445  0.11720472  0.32753595     0.05890
C608        C  0.26229782  0.12498486  0.35488240    -0.02660
Br609      Br  0.22829302  0.17847265  0.36742553    -0.02360
H610        H  0.25894891  0.09548166  0.39311909     0.09800
H611        H  0.23737515  0.07531370  0.29819379     0.07820
Br612      Br  0.20167501  0.99052151  0.32224759    -0.02790
C613        C  0.82260024  0.23510479  0.32637818    -0.09420
C614        C  0.80174257  0.19813460  0.34168901     0.06780
C615        C  0.75907203  0.20925091  0.35384018    -0.03190
C616        C  0.73894869  0.25236282  0.34844788    -0.07640
C617        C  0.74962057  0.28039991  0.32567652     0.05890
C618        C  0.79672480  0.27452927  0.31744104    -0.02660
Br619      Br  0.83148294  0.31873011  0.29689713    -0.02360
H620        H  0.85742863  0.23025114  0.31847413     0.09800
H621        H  0.70822325  0.25733818  0.35950828     0.07820
Br622      Br  0.72173758  0.17026635  0.37705827    -0.02790
C623        C  0.75786937  0.39519692  0.32644247    -0.09420
C624        C  0.72014573  0.36371503  0.33137684     0.06780
C625        C  0.69968838  0.37223936  0.35689161    -0.03190
C626        C  0.70846193  0.41302105  0.37181096    -0.07640
C627        C  0.74883671  0.44136365  0.36872891     0.05890
C628        C  0.77513615  0.42887423  0.34544932    -0.02660
Br629      Br  0.83999337  0.44436767  0.33994697    -0.02360
H630        H  0.77867341  0.39097210  0.30922471     0.09800
H631        H  0.68784451  0.41527333  0.38943359     0.07820
Br632      Br  0.67099142  0.32665581  0.37923189    -0.02790
C633        C  0.65627326  0.24613394  0.32114720    -0.09420
C634        C  0.66291354  0.29579834  0.32182169     0.06780
C635        C  0.62211839  0.32366461  0.32505996    -0.03190
C636        C  0.58380834  0.30328198  0.33753957    -0.07640
C637        C  0.58557315  0.25565710  0.34459766     0.05890
C638        C  0.61768340  0.22598668  0.33261949    -0.02660
Br639      Br  0.61086987  0.15882844  0.33187333    -0.02360
H640        H  0.68169203  0.22321927  0.31204208     0.09800
H641        H  0.55546676  0.32548224  0.34406810     0.07820
Br642      Br  0.61625935  0.38739843  0.31279888    -0.02790
C643        C  0.76558884  0.25897512  0.20455434    -0.09420
C644        C  0.72039839  0.25403091  0.19351228     0.06780
C645        C  0.70343039  0.20618576  0.19222008    -0.03190
C646        C  0.73492278  0.16888845  0.19553170    -0.07640
C647        C  0.77569375  0.17493538  0.21146080     0.05890
C648        C  0.78618670  0.22247486  0.21868476    -0.02660
Br649      Br  0.82917115  0.24156114  0.24654485    -0.02360
H650        H  0.78140646  0.29289288  0.20656819     0.09800
H651        H  0.72220370  0.13464472  0.19014006     0.07820
Br652      Br  0.64006229  0.18483057  0.19880189    -0.02790
C653        C  0.66501021  0.28703439  0.23919120    -0.09420
C654        C  0.69056738  0.31532900  0.22259633     0.06780
C655        C  0.72530825  0.34414299  0.23633663    -0.03190
C656        C  0.73049575  0.34369535  0.26465411    -0.07640
C657        C  0.70160273  0.31734785  0.28177169     0.05890
C658        C  0.66415131  0.29209629  0.26668171    -0.02660
Br659      Br  0.60114734  0.26826351  0.27458628    -0.02360
H660        H  0.64246550  0.26121447  0.22995171     0.09800
H661        H  0.75784750  0.36520552  0.27277150     0.07820
Br662      Br  0.77316931  0.38127934  0.21965573    -0.02790
C663        C  0.64477826  0.26410515  0.15252501    -0.09420
C664        C  0.64034176  0.28620679  0.17769080     0.06780
C665        C  0.59249527  0.28828702  0.18695950    -0.03190
C666        C  0.55498210  0.26710919  0.17218103    -0.07640
C667        C  0.56046866  0.24376704  0.14748466     0.05890
C668        C  0.60862930  0.23648744  0.14090520    -0.02660
Br669      Br  0.63337553  0.17478640  0.13364680    -0.02360
H670        H  0.67979404  0.25937254  0.14483990     0.09800
H671        H  0.51988873  0.27105955  0.17979368     0.07820
Br672      Br  0.56905606  0.32084214  0.21754477    -0.02790
C673        C  0.43210446  0.12744008  0.61969698    -0.09420
C674        C  0.44514598  0.11283986  0.59396441     0.06780
C675        C  0.48337770  0.13976083  0.58340989    -0.03190
C676        C  0.50462422  0.17838299  0.59758573    -0.07640
C677        C  0.48851200  0.19493405  0.62246854     0.05890
C678        C  0.45145804  0.16628168  0.63341081    -0.02660
Br679      Br  0.42234613  0.17200188  0.66760356    -0.02360
H680        H  0.40780349  0.10637223  0.63086329     0.09800
H681        H  0.53482399  0.19541202  0.58893455     0.07820
Br682      Br  0.51614998  0.12077556  0.55269513    -0.02790
C683        C  0.44195101  0.02560660  0.53524065    -0.09420
C684        C  0.41617904  0.05796187  0.55105308     0.06780
C685        C  0.38082429  0.08052475  0.53517054    -0.03190
C686        C  0.36784295  0.06276903  0.50912969    -0.07640
C687        C  0.39542461  0.02789954  0.49586719     0.05890
C688        C  0.42242075  0.00187630  0.51325407    -0.02660
Br689      Br  0.39185106  0.94392669  0.52160696    -0.02360
H690        H  0.47794726  0.01752272  0.53977596     0.09800
H691        H  0.34330855  0.08307567  0.49739579     0.07820
Br692      Br  0.37491589  0.14725893  0.53698972    -0.02790
C693        C  0.47183301  0.14629521  0.49272815    -0.09420
C694        C  0.44762596  0.17993630  0.47821601     0.06780
C695        C  0.40293931  0.16768593  0.46917286    -0.03190
C696        C  0.39443133  0.12115903  0.46221795    -0.07640
C697        C  0.42848421  0.08595387  0.46767992     0.05890
C698        C  0.46729100  0.09966212  0.48449786    -0.02660
Br699      Br  0.51868012  0.06002222  0.49469861    -0.02360
H700        H  0.50440563  0.15707557  0.50230391     0.09800
H701        H  0.36013131  0.11251886  0.45410862     0.07820
Br702      Br  0.35537548  0.21384115  0.46425881    -0.02790
C703        C  0.33994797  0.98880045  0.44842165    -0.09420
C704        C  0.37350712  0.02471521  0.44450986     0.06780
C705        C  0.37362649  0.04460475  0.41848182    -0.03190
C706        C  0.33847947  0.03499307  0.39986870    -0.07640
C707        C  0.30243916  0.00275546  0.40435089     0.05890
C708        C  0.30634930  0.97626569  0.42858788    -0.02660
Br709      Br  0.26427049  0.92671643  0.43847863    -0.02360
H710        H  0.33932315  0.97023213  0.46717985     0.09800
H711        H  0.33969466  0.05444996  0.38157799     0.07820
Br712      Br  0.41719324  0.08785612  0.40467593    -0.02790
C713        C  0.54308371  0.33768222  0.58160222    -0.09420
C714        C  0.57312192  0.37064756  0.59541018     0.06780
C715        C  0.58681389  0.35258433  0.62135395    -0.03190
C716        C  0.56680521  0.31160221  0.63247841    -0.07640
C717        C  0.53327793  0.28210222  0.62002384     0.05890
C718        C  0.52106128  0.29736280  0.59357195    -0.02660
Br719      Br  0.47094143  0.27086064  0.57233217    -0.02360
H720        H  0.53545572  0.34254757  0.56072572     0.09800
H721        H  0.57972893  0.30130257  0.65180764     0.07820
Br722      Br  0.63753183  0.37173566  0.64450121    -0.02790
C723        C  0.60139288  0.48436784  0.51308629    -0.09420
C724        C  0.60946615  0.44607482  0.49620446     0.06780
C725        C  0.62247010  0.40426283  0.51057572    -0.03190
C726        C  0.60350568  0.39502419  0.53568229    -0.07640
C727        C  0.59549455  0.43214891  0.55318829     0.05890
C728        C  0.60162178  0.47828664  0.54132769    -0.02660
Br729      Br  0.62418314  0.53186911  0.56105965    -0.02360
H730        H  0.59940844  0.51916254  0.50455751     0.09800
H731        H  0.60508898  0.35955448  0.54306732     0.07820
Br732      Br  0.67213946  0.36253101  0.50051944    -0.02790
C733        C  0.56288760  0.36804691  0.47273108    -0.09420
C734        C  0.59294169  0.39608682  0.45679402     0.06780
C735        C  0.61796904  0.37249700  0.43738735    -0.03190
C736        C  0.63517982  0.32834664  0.44447073    -0.07640
C737        C  0.60633512  0.29990809  0.46012781     0.05890
C738        C  0.57397608  0.32129327  0.47697763    -0.02660
Br739      Br  0.53738747  0.28499738  0.50140866    -0.02360
H740        H  0.53802481  0.38296251  0.48618758     0.09800
H741        H  0.65795196  0.31061299  0.43083192     0.07820
Br742      Br  0.57942110  0.36781624  0.40591795    -0.02790
C743        C  0.69523412  0.45472177  0.46001660    -0.09420
C744        C  0.64945728  0.46717985  0.45152863     0.06780
C745        C  0.64966958  0.49702816  0.42955803    -0.03190
C746        C  0.68266968  0.49099212  0.40985228    -0.07640
C747        C  0.72822812  0.47541749  0.41609528     0.05890
C748        C  0.73501019  0.46409144  0.44393038    -0.02660
Br749      Br  0.79237396  0.47348104  0.46402355    -0.02360
H750        H  0.70107595  0.44338557  0.48017601     0.09800
H751        H  0.67493718  0.50527558  0.39030973     0.07820
Br752      Br  0.63322237  0.56086712  0.43300573    -0.02790
C753        C  0.30585469  0.73208359  0.69420641    -0.09420
C754        C  0.28877676  0.69269803  0.70823555     0.06780
C755        C  0.23928533  0.68952752  0.71042732    -0.03190
C756        C  0.21071928  0.72430554  0.69985088    -0.07640
C757        C  0.22713643  0.76846306  0.69106636     0.05890
C758        C  0.27613538  0.76799025  0.68460283    -0.02660
Br759      Br  0.30920974  0.81242116  0.66291453    -0.02360
H760        H  0.34285349  0.73590772  0.69041512     0.09800
H761        H  0.17589934  0.71250926  0.69603746     0.07820
Br762      Br  0.20609214  0.63477051  0.72300616    -0.02790
C763        C  0.38346448  0.65450033  0.68356976    -0.09420
C764        C  0.37269667  0.66089560  0.71041017     0.06780
C765        C  0.41119819  0.67194235  0.72803394    -0.03190
C766        C  0.45727124  0.66599295  0.71937724    -0.07640
C767        C  0.46552158  0.64986125  0.69367447     0.05890
C768        C  0.42806487  0.64487088  0.67575319    -0.02660
Br769      Br  0.43491677  0.62695484  0.63966729    -0.02360
H770        H  0.35639287  0.65394805  0.66856470     0.09800
H771        H  0.48662577  0.67597293  0.73218828     0.07820
Br772      Br  0.40731173  0.70771485  0.76014041    -0.02790
C773        C  0.27852645  0.61286205  0.67661599    -0.09420
C774        C  0.30509111  0.60559647  0.70064748     0.06780
C775        C  0.32683083  0.56061526  0.70178343    -0.03190
C776        C  0.31216686  0.52463723  0.68390565    -0.07640
C777        C  0.29063421  0.53519330  0.65871921     0.05890
C778        C  0.28269833  0.58364354  0.65477652    -0.02660
Br779      Br  0.30740274  0.61986571  0.62541581    -0.02360
H780        H  0.26596517  0.64680989  0.67075471     0.09800
H781        H  0.32653528  0.49026320  0.68754184     0.07820
Br782      Br  0.38694469  0.54943618  0.71887094    -0.02790
C783        C  0.24898488  0.71606844  0.83541593    -0.09420
C784        C  0.29826187  0.71877377  0.83743794     0.06780
C785        C  0.31829011  0.76337249  0.82940912    -0.03190
C786        C  0.29018464  0.80332019  0.82828793    -0.07640
C787        C  0.24222494  0.79846210  0.82253476     0.05890
C788        C  0.22533463  0.75115329  0.82112105    -0.02660
Br789      Br  0.17449523  0.73266926  0.79730260    -0.02360
H790        H  0.23130197  0.68288523  0.83836606     0.09800
H791        H  0.30737749  0.83675822  0.82751871     0.07820
Br792      Br  0.38055807  0.77431149  0.81607371    -0.02790
C793        C  0.34974229  0.62232486  0.79306916    -0.09420
C794        C  0.32688227  0.66050211  0.80590777     0.06780
C795        C  0.28986554  0.67831808  0.78938424    -0.03190
C796        C  0.29960427  0.68524783  0.76317234    -0.07640
C797        C  0.31756083  0.64675135  0.74893346     0.05890
C798        C  0.33727583  0.61075937  0.76586790    -0.02660
Br799      Br  0.30891380  0.54945401  0.76411430    -0.02360
H800        H  0.36673591  0.59603879  0.80527032     0.09800
H801        H  0.28589483  0.71685272  0.75430058     0.07820
Br802      Br  0.23180170  0.64217569  0.78799451    -0.02790
C803        C  0.42650223  0.74062121  0.87756351    -0.09420
C804        C  0.47000994  0.72174641  0.86951482     0.06780
C805        C  0.46490553  0.68199924  0.85194848    -0.03190
C806        C  0.41979808  0.66583091  0.84267246    -0.07640
C807        C  0.37685339  0.68565623  0.85099551     0.05890
C808        C  0.38234489  0.72287202  0.87045391    -0.02660
Br809      Br  0.33345305  0.75732113  0.88929729    -0.02360
H810        H  0.42469000  0.76884654  0.89161429     0.09800
H811        H  0.41896427  0.63683752  0.82890508     0.07820
Br812      Br  0.51648591  0.64534691  0.83966416    -0.02790
C813        C  0.79098861  0.77578841  0.67978929    -0.09420
C814        C  0.78016796  0.79193637  0.70597289     0.06780
C815        C  0.79587428  0.76424054  0.72666534    -0.03190
C816        C  0.80250140  0.71689277  0.72199562    -0.07640
C817        C  0.81226346  0.69801967  0.69606986     0.05890
C818        C  0.80695949  0.73026825  0.67476903    -0.02660
Br819      Br  0.82019048  0.71655172  0.63825294    -0.02360
H820        H  0.78334302  0.79765528  0.66271897     0.09800
H821        H  0.80914964  0.69878412  0.74018592     0.07820
Br822      Br  0.84472060  0.78963715  0.74858807    -0.02790
C823        C  0.68763167  0.75415989  0.71212010    -0.09420
C824        C  0.69971607  0.79464717  0.69678726     0.06780
C825        C  0.69208700  0.79055261  0.66904009    -0.03190
C826        C  0.68535675  0.74612269  0.65757911    -0.07640
C827        C  0.67438499  0.70643810  0.67304021     0.05890
C828        C  0.67253895  0.71216918  0.70081427    -0.02660
Br829      Br  0.65120437  0.66514238  0.72538437    -0.02360
H830        H  0.69444724  0.75294900  0.73335320     0.09800
H831        H  0.68580395  0.74346515  0.63613843     0.07820
Br832      Br  0.69302458  0.84250709  0.64539001    -0.02790
C833        C  0.72009223  0.91104182  0.69441826    -0.09420
C834        C  0.75191194  0.87375704  0.69483664     0.06780
C835        C  0.79566338  0.88371959  0.68223087    -0.03190
C836        C  0.79787440  0.91771057  0.66237058    -0.07640
C837        C  0.76146519  0.95031963  0.65751120     0.05890
C838        C  0.72793164  0.95116029  0.67865427    -0.02660
Br839      Br  0.68686308  0.00167800  0.68609795    -0.02360
H840        H  0.68905479  0.90929868  0.70657997     0.09800
H841        H  0.83010432  0.91808928  0.65158595     0.07820
Br842      Br  0.85701067  0.86060515  0.69220057    -0.02790
C843        C  0.70164524  0.71938319  0.82606162    -0.09420
C844        C  0.72160356  0.76420673  0.82005210     0.06780
C845        C  0.76590776  0.76186586  0.80673706    -0.03190
C846        C  0.78260040  0.71909530  0.79674886    -0.07640
C847        C  0.76460934  0.67563306  0.80536931     0.05890
C848        C  0.72009700  0.67677456  0.81710555    -0.02660
Br849      Br  0.67795134  0.62381054  0.81682310    -0.02360
H850        H  0.66998186  0.71563846  0.83724918     0.09800
H851        H  0.81672731  0.71941601  0.78779680     0.07820
Br852      Br  0.81724268  0.80613480  0.81060722    -0.02790
C853        C  0.73387251  0.85779660  0.78567686    -0.09420
C854        C  0.69188094  0.83407313  0.79340161     0.06780
C855        C  0.65795092  0.83252110  0.77244599    -0.03190
C856        C  0.67306736  0.83512111  0.74574039    -0.07640
C857        C  0.72153126  0.83912195  0.73880022     0.05890
C858        C  0.74910119  0.85997938  0.75909785    -0.02660
Br859      Br  0.80220178  0.89956828  0.75210906    -0.02360
H860        H  0.75614894  0.87457709  0.80043010     0.09800
H861        H  0.64634643  0.83334771  0.73022822     0.07820
Br862      Br  0.59227100  0.84500014  0.77698197    -0.02790
C863        C  0.63765800  0.79761740  0.86380678    -0.09420
C864        C  0.64055413  0.79521214  0.83551815     0.06780
C865        C  0.60288380  0.76788038  0.82355026    -0.03190
C866        C  0.56221279  0.75439896  0.83834145    -0.07640
C867        C  0.55982329  0.75857097  0.86651633     0.05890
C868        C  0.60030503  0.77942010  0.87880553    -0.02660
Br869      Br  0.61004164  0.78219020  0.91689564    -0.02360
H870        H  0.66697635  0.81096148  0.87538326     0.09800
H871        H  0.53347875  0.73797971  0.82760243     0.07820
Br872      Br  0.60882773  0.73497732  0.79010644    -0.02790
C873        C  0.49684138  0.53122803  0.58066414    -0.09420
C874        C  0.46376474  0.51436011  0.56153112     0.06780
C875        C  0.46498100  0.46545535  0.55759913    -0.03190
C876        C  0.49988399  0.43792764  0.56940535    -0.07640
C877        C  0.53769635  0.45525978  0.58543847     0.05890
C878        C  0.53195100  0.50385014  0.59285668    -0.02660
Br879      Br  0.56259870  0.54131534  0.62012345    -0.02360
H880        H  0.49450277  0.56692723  0.58750504     0.09800
H881        H  0.49871206  0.40270896  0.56291247     0.07820
Br882      Br  0.42177367  0.43071159  0.53606153    -0.02790
C883        C  0.39138875  0.53891177  0.59795189    -0.09420
C884        C  0.38080321  0.53144132  0.57076939     0.06780
C885        C  0.33874816  0.50445903  0.56552521    -0.03190
C886        C  0.30834267  0.49328478  0.58664292    -0.07640
C887        C  0.31847220  0.50550638  0.61349317     0.05890
C888        C  0.36452249  0.52214923  0.61857601    -0.02660
Br889      Br  0.39986832  0.51413035  0.65099896    -0.02360
H890        H  0.42373035  0.55549480  0.60369719     0.09800
H891        H  0.27618019  0.47430067  0.58203776     0.07820
Br892      Br  0.31801103  0.47673944  0.53227870    -0.02790
C893        C  0.40631692  0.63126251  0.56920364    -0.09420
C894        C  0.43641641  0.59978118  0.55577909     0.06780
C895        C  0.48060410  0.61996560  0.54699775    -0.03190
C896        C  0.49257959  0.66562867  0.55414972    -0.07640
C897        C  0.47214480  0.68327534  0.57667337     0.05890
C898        C  0.42447458  0.67335502  0.57979082    -0.02660
Br899      Br  0.38561593  0.71535490  0.59933082    -0.02360
H900        H  0.37032975  0.62205707  0.57338098     0.09800
H901        H  0.52707375  0.67906731  0.54911027     0.07820
Br902      Br  0.53480185  0.59032681  0.53194844    -0.02790
C903        C  0.50511263  0.51376537  0.41975485    -0.09420
C904        C  0.46745283  0.51443917  0.43705514     0.06780
C905        C  0.47041240  0.48218987  0.45824655    -0.03190
C906        C  0.51464199  0.46882363  0.46841766    -0.07640
C907        C  0.55588007  0.47239210  0.45297256     0.05890
C908        C  0.54590916  0.48822026  0.42562693    -0.02660
Br909      Br  0.57521288  0.47567625  0.39177785    -0.02360
H910        H  0.50147107  0.53171804  0.40081463     0.09800
H911        H  0.51546513  0.45298639  0.48788496     0.07820
Br912      Br  0.41503978  0.45083037  0.47038076    -0.02790
C913        C  0.45116674  0.54627968  0.50496875    -0.09420
C914        C  0.41168991  0.54512982  0.52108275     0.06780
C915        C  0.37009224  0.56036909  0.50712008    -0.03190
C916        C  0.37000661  0.55929004  0.47850592    -0.07640
C917        C  0.41410712  0.56345044  0.46479037     0.05890
C918        C  0.45025052  0.57464396  0.48223234    -0.02660
Br919      Br  0.44899119  0.64193557  0.48814216    -0.02360
H920        H  0.48208503  0.52651543  0.51004417     0.09800
H921        H  0.33629420  0.55737189  0.46875617     0.07820
Br922      Br  0.31907083  0.59230823  0.52390587    -0.02790
C923        C  0.51804302  0.65665950  0.41394405    -0.09420
C924        C  0.48974316  0.68920868  0.40015319     0.06780
C925        C  0.44106669  0.68052628  0.40310864    -0.03190
C926        C  0.42405594  0.63457035  0.40837431    -0.07640
C927        C  0.45112328  0.60099044  0.42272843     0.05890
C928        C  0.49877943  0.61758235  0.42771056    -0.02660
Br929      Br  0.53936201  0.59758708  0.45612654    -0.02360
H930        H  0.55525701  0.66393807  0.41606141     0.09800
H931        H  0.38733706  0.62983533  0.40484494     0.07820
Br932      Br  0.40733183  0.72557707  0.42379534    -0.02790
C933        C  0.52219614  0.97386996  0.43152617    -0.09420
C934        C  0.52387332  0.93092235  0.44478520     0.06780
C935        C  0.47956653  0.91735994  0.45483159    -0.03190
C936        C  0.44636247  0.95138163  0.46163372    -0.07640
C937        C  0.45370766  0.99981455  0.45737359     0.05890
C938        C  0.49256108  0.01000650  0.44000081    -0.02660
Br939      Br  0.51742833  0.06968154  0.42896036    -0.02360
H940        H  0.54441142  0.98028864  0.41471674     0.09800
H941        H  0.41289871  0.93906672  0.46849876     0.07820
Br942      Br  0.45140214  0.85843877  0.44527424    -0.02790
C943        C  0.55419343  0.85654960  0.40738707    -0.09420
C944        C  0.56150740  0.85291856  0.43529744     0.06780
C945        C  0.55761009  0.80568575  0.44554444    -0.03190
C946        C  0.53635868  0.76942120  0.42988856    -0.07640
C947        C  0.52980001  0.77353373  0.40196460     0.05890
C948        C  0.54189765  0.81821939  0.39093811    -0.02660
Br949      Br  0.54507312  0.82961089  0.35316378    -0.02360
H950        H  0.55944943  0.89020683  0.39783794     0.09800
H951        H  0.53087292  0.73590074  0.43931179     0.07820
Br952      Br  0.59156095  0.77984768  0.47573759    -0.02790
C953        C  0.54927828  0.01104203  0.58629702    -0.09420
C954        C  0.54193373  0.96548580  0.57572761     0.06780
C955        C  0.49478681  0.95043673  0.57199052    -0.03190
C956        C  0.45831450  0.97854691  0.58089061    -0.07640
C957        C  0.46603253  0.02549625  0.58944962     0.05890
C958        C  0.51277098  0.03712477  0.59663122    -0.02660
Br959      Br  0.53042558  0.07471313  0.62719901    -0.02360
H960        H  0.58412204  0.02513423  0.58959974     0.09800
H961        H  0.42295696  0.96657009  0.57641623     0.07820
Br962      Br  0.47489229  0.89058294  0.55783067    -0.02790
C963        C  0.56985399  0.88100728  0.52844416    -0.09420
C964        C  0.58583387  0.92421368  0.53929525     0.06780
C965        C  0.59665292  0.95908597  0.52018697    -0.03190
C966        C  0.59487519  0.94856718  0.49258312    -0.07640
C967        C  0.57707852  0.90544711  0.48168858     0.05890
C968        C  0.55843015  0.87476679  0.50145549    -0.02660
Br969      Br  0.50473762  0.83368202  0.49851042    -0.02360
H970        H  0.55838726  0.85321723  0.54140991     0.09800
H971        H  0.60482689  0.97673309  0.47966679     0.07820
Br972      Br  0.61378486  0.02247281  0.52977919    -0.02790
C973        C  0.67289509  0.95935481  0.57005108    -0.09420
C974        C  0.63019031  0.95303708  0.58375310     0.06780
C975        C  0.63329978  0.95738247  0.61196196    -0.03190
C976        C  0.67584519  0.95740683  0.62454232    -0.07640
C977        C  0.71743330  0.96995990  0.61235478     0.05890
C978        C  0.71447445  0.97362938  0.58365153    -0.02660
Br979      Br  0.76212362  0.00061088  0.56112494    -0.02360
H980        H  0.67451390  0.95461362  0.54877275     0.09800
H981        H  0.67370244  0.94825156  0.64460745     0.07820
Br982      Br  0.58440751  0.96347489  0.63774010    -0.02790
C983        C  0.61777394  0.85461549  0.57966615    -0.09420
C984        C  0.58041681  0.88551735  0.58563174     0.06780
C985        C  0.54947190  0.87207398  0.60702328    -0.03190
C986        C  0.55844660  0.83122105  0.62074779    -0.07640
C987        C  0.59455195  0.80162315  0.61376262     0.05890
C988        C  0.62400593  0.81263544  0.59264810    -0.02660
Br989      Br  0.67441936  0.77341165  0.58089387    -0.02360
H990        H  0.64280234  0.86347942  0.56437540     0.09800
H991        H  0.53514485  0.82099839  0.63668826     0.07820
Br992      Br  0.49490501  0.90098863  0.62314214    -0.02790
C993        C  0.87936905  0.99030840  0.92953878    -0.09420
C994        C  0.89070897  0.03889620  0.92841764     0.06780
C995        C  0.86114908  0.06500430  0.91124093    -0.03190
C996        C  0.83244069  0.04272312  0.89209247    -0.07640
C997        C  0.81777576  0.99466751  0.89410839     0.05890
C998        C  0.84150766  0.96951134  0.91482976    -0.02660
Br999      Br  0.81933899  0.91089727  0.92889007    -0.02360
H1000       H  0.89710102  0.96872234  0.94417678     0.09800
H1001       H  0.81382090  0.06711815  0.87954844     0.07820
Br1002     Br  0.84502509  0.12956496  0.91809929    -0.02790
C1003       C  0.75634136  0.84997676  0.85384957    -0.09420
C1004       C  0.71162111  0.85102628  0.84093814     0.06780
C1005       C  0.68688391  0.89356587  0.84366044    -0.03190
C1006       C  0.70659785  0.93151788  0.85711050    -0.07640
C1007       C  0.75350305  0.93364172  0.86716623     0.05890
C1008       C  0.77953975  0.89164043  0.86341108    -0.02660
Br1009     Br  0.84651536  0.88857852  0.86687315    -0.02360
H1010       H  0.77445252  0.81707983  0.85561541     0.09800
H1011       H  0.68255416  0.95944094  0.86083945     0.07820
Br1012     Br  0.62328670  0.90378027  0.83203741    -0.02790
C1013       C  0.12166811  0.47558649  0.90738247    -0.09420
C1014       C  0.12464829  0.43432701  0.92319436     0.06780
C1015       C  0.16925089  0.41185441  0.92313176    -0.03190
C1016       C  0.20705450  0.43083356  0.90913776    -0.07640
C1017       C  0.20629671  0.47597241  0.89735719     0.05890
C1018       C  0.16181005  0.49884310  0.89724326    -0.02660
Br1019     Br  0.15002404  0.56101745  0.88424477    -0.02360
H1020       H  0.08827955  0.49177809  0.90342399     0.09800
H1021       H  0.23905072  0.41057012  0.90859475     0.07820
Br1022     Br  0.18537052  0.35746935  0.94373846    -0.02790
C1023       C  0.27765013  0.57962193  0.89165576    -0.09420
C1024       C  0.25512989  0.54579994  0.87529517     0.06780
C1025       C  0.24818641  0.56001654  0.84866454    -0.03190
C1026       C  0.27715852  0.59456998  0.83802346    -0.07640
C1027       C  0.30210702  0.62904815  0.85303751     0.05890
C1028       C  0.30015820  0.62025560  0.88132628    -0.02660
Br1029     Br  0.33381993  0.65182537  0.90890704    -0.02360
H1030       H  0.28086337  0.57264802  0.91278695     0.09800
H1031       H  0.28110589  0.59069252  0.81725395     0.07820
Br1032     Br  0.20410586  0.53122005  0.82397000    -0.02790
C1033       C  0.29841019  0.46993069  0.84175685    -0.09420
C1034       C  0.26001748  0.46048832  0.85825485     0.06780
C1035       C  0.22803008  0.42599595  0.84676079    -0.03190
C1036       C  0.24401356  0.39507174  0.82696521    -0.07640
C1037       C  0.29162730  0.39402846  0.82064378     0.05890
C1038       C  0.31470551  0.43807970  0.82329912    -0.02660
Br1039     Br  0.36657466  0.45925838  0.80206796    -0.02360
H1040       H  0.31382378  0.50396419  0.84119975     0.09800
H1041       H  0.22058981  0.36819851  0.81911697     0.07820
Br1042     Br  0.16123490  0.42048981  0.85138971    -0.02790
C1043       C  0.33793821  0.29865877  0.77129482    -0.09420
C1044       C  0.31761442  0.33953726  0.78208113     0.06780
C1045       C  0.31038630  0.37571794  0.76256782    -0.03190
C1046       C  0.32944829  0.37268421  0.73665708    -0.07640
C1047       C  0.34738552  0.33071023  0.72559893     0.05890
C1048       C  0.35654166  0.29562147  0.74539471    -0.02660
Br1049     Br  0.40681029  0.25078241  0.74400214    -0.02360
H1050       H  0.34363368  0.26896185  0.78350770     0.09800
H1051       H  0.32738090  0.40403245  0.72479064     0.07820
Br1052     Br  0.26462198  0.42495883  0.76501698    -0.02790
C1053       C  0.28240029  0.38801684  0.68432569    -0.09420
C1054       C  0.32568699  0.36600680  0.67809810     0.06780
C1055       C  0.35091696  0.38848649  0.65720040    -0.03190
C1056       C  0.32864151  0.42016866  0.64020834    -0.07640
C1057       C  0.28920809  0.44637113  0.64814223     0.05890
C1058       C  0.26600177  0.42889559  0.67115388    -0.02660
Br1059     Br  0.21449222  0.46094718  0.68748198    -0.02360
H1060       H  0.26159036  0.37423987  0.70045793     0.09800
H1061       H  0.34822784  0.42916252  0.62272303     0.07820
Br1062     Br  0.41839812  0.39200913  0.65348102    -0.02790
C1063       C  0.43548343  0.30582212  0.69226354    -0.09420
C1064       C  0.39027258  0.30282594  0.68011719     0.06780
C1065       C  0.38948373  0.28519961  0.65345403    -0.03190
C1066       C  0.43032371  0.26988787  0.64115601    -0.07640
C1067       C  0.47386489  0.26450966  0.65458661     0.05890
C1068       C  0.47672227  0.28804034  0.67992807    -0.02660
Br1069     Br  0.53441943  0.30422881  0.69808380    -0.02360
H1070       H  0.43934795  0.32425248  0.71103740     0.09800
H1071       H  0.42652781  0.25839780  0.62076300     0.07820
Br1072     Br  0.33501462  0.28222477  0.63053365    -0.02790
C1073       C  0.42128395  0.38616932  0.85952366    -0.09420
C1074       C  0.45897871  0.37364978  0.84400941     0.06780
C1075       C  0.45200855  0.36775818  0.81669368    -0.03190
C1076       C  0.40705794  0.35810743  0.80711992    -0.07640
C1077       C  0.36826038  0.35648800  0.82462318     0.05890
C1078       C  0.37694086  0.37067092  0.85173579    -0.02660
Br1079     Br  0.33320071  0.36832442  0.88046193    -0.02360
H1080       H  0.42762413  0.39399035  0.88040723     0.09800
H1081       H  0.40390580  0.35218819  0.78600965     0.07820
Br1082     Br  0.50406373  0.35834490  0.79353726    -0.02790
C1083       C  0.35928821  0.40692362  0.10494240    -0.09420
C1084       C  0.39719005  0.43771661  0.10105999     0.06780
C1085       C  0.39151565  0.48259783  0.11430641    -0.03190
C1086       C  0.34693390  0.49915922  0.12171039    -0.07640
C1087       C  0.30844168  0.46879315  0.12378241     0.05890
C1088       C  0.31661683  0.42077828  0.11608930    -0.02660
Br1089     Br  0.27047197  0.37102623  0.11841653    -0.02360
H1090       H  0.36343928  0.37029670  0.10032268     0.09800
H1091       H  0.34428840  0.53448675  0.12939967     0.07820
Br1092     Br  0.43909320  0.51676477  0.13395035    -0.02790
C1093       C  0.49914455  0.32298872  0.12776008    -0.09420
C1094       C  0.49792741  0.28000104  0.11347731     0.06780
C1095       C  0.47474956  0.28425296  0.08764579    -0.03190
C1096       C  0.45389486  0.32731454  0.07881580    -0.07640
C1097       C  0.45526036  0.36933015  0.09388340     0.05890
C1098       C  0.47778298  0.36486115  0.11928931    -0.02660
Br1099     Br  0.48516158  0.41459420  0.14458994    -0.02360
H1100       H  0.51496341  0.32515250  0.14704553     0.09800
H1101       H  0.43982289  0.32855950  0.05883052     0.07820
Br1102     Br  0.47384336  0.23787433  0.05983512    -0.02790
C1103       C  0.37465435  0.40892162  0.00889732    -0.09420
C1104       C  0.39861300  0.44639062  0.99570944     0.06780
C1105       C  0.42036844  0.47708958  0.01326579    -0.03190
C1106       C  0.44278717  0.45729451  0.03471666    -0.07640
C1107       C  0.42133424  0.42262979  0.05125055     0.05890
C1108       C  0.38279769  0.39932994  0.03697874    -0.02660
Br1109     Br  0.34557009  0.34847474  0.05023915    -0.02360
H1110       H  0.35229757  0.38556471  0.99724794     0.09800
H1111       H  0.47815744  0.46971310  0.03667316     0.07820
Br1112     Br  0.42518311  0.54373092  0.00794473    -0.02790
C1113       C  0.46457015  0.40193077  0.93432695    -0.09420
C1114       C  0.43262440  0.40056711  0.95582696     0.06780
C1115       C  0.43213265  0.35717300  0.97023325    -0.03190
C1116       C  0.44415461  0.31648120  0.95646463    -0.07640
C1117       C  0.47979127  0.32066483  0.93786603     0.05890
C1118       C  0.49336179  0.36512942  0.92913470    -0.02660
Br1119     Br  0.55158251  0.38023478  0.91196871    -0.02360
H1120       H  0.47430241  0.43370406  0.92420792     0.09800
H1121       H  0.43608540  0.28220045  0.96460978     0.07820
Br1122     Br  0.46531905  0.35271014  0.00373705    -0.02790
C1123       C  0.37701635  0.46379695  0.91793705    -0.09420
C1124       C  0.36867310  0.46089976  0.94568805     0.06780
C1125       C  0.32191378  0.47349907  0.95289085    -0.03190
C1126       C  0.28721163  0.48289484  0.93305029    -0.07640
C1127       C  0.29593333  0.48413458  0.90516528     0.05890
C1128       C  0.34474617  0.48199817  0.89929844    -0.02660
Br1129     Br  0.37732500  0.52128029  0.87418867    -0.02360
H1130       H  0.41185676  0.46086062  0.91073423     0.09800
H1131       H  0.25297337  0.49236134  0.93995663     0.07820
Br1132     Br  0.30064496  0.48517831  0.98845565    -0.02790
C1133       C  0.76741880  0.06058193  0.81793881    -0.09420
C1134       C  0.72463154  0.08466274  0.81974690     0.06780
C1135       C  0.69251139  0.06595772  0.83850408    -0.03190
C1136       C  0.70914156  0.04089357  0.86050253    -0.07640
C1137       C  0.75324768  0.01872310  0.86023089     0.05890
C1138       C  0.78067831  0.02644117  0.83691344    -0.02660
Br1139     Br  0.83822779  0.99434227  0.83022996    -0.02360
H1140       H  0.79154053  0.06956168  0.80227264     0.09800
H1141       H  0.68424207  0.03330406  0.87599900     0.07820
Br1142     Br  0.62542977  0.06306913  0.83322509    -0.02790
C1143       C  0.62956215  0.15778564  0.79332123    -0.09420
C1144       C  0.66775999  0.15132892  0.81162419     0.06780
C1145       C  0.66412404  0.17365029  0.83700768    -0.03190
C1146       C  0.63463957  0.21103803  0.83933687    -0.07640
C1147       C  0.59966243  0.21931164  0.82033213     0.05890
C1148       C  0.59525135  0.19088982  0.79801110    -0.02660
Br1149     Br  0.54601309  0.20016672  0.77226044    -0.02360
H1150       H  0.62544879  0.14048572  0.77465726     0.09800
H1151       H  0.63747385  0.23210387  0.85722647     0.07820
Br1152     Br  0.70245388  0.16222853  0.86844248    -0.02790
C1153       C  0.68651862  0.09651426  0.75751135    -0.09420
C1154       C  0.72017947  0.12195157  0.77292630     0.06780
C1155       C  0.75418889  0.14517182  0.75803677    -0.03190
C1156       C  0.74303767  0.16042814  0.73264890    -0.07640
C1157       C  0.70317595  0.14464767  0.71740794     0.05890
C1158       C  0.67629374  0.10888901  0.73041445    -0.02660
Br1159     Br  0.62155957  0.07952952  0.71494424    -0.02360
H1160       H  0.66333680  0.07219937  0.76754551     0.09800
H1161       H  0.76966862  0.18285813  0.72455117     0.07820
Br1162     Br  0.81909185  0.15176015  0.76904573    -0.02790
C1163       C  0.69774185  0.09946610  0.64856453    -0.09420
C1164       C  0.72301517  0.11899815  0.67021375     0.06780
C1165       C  0.76685462  0.09479668  0.67582359    -0.03190
C1166       C  0.77962221  0.05352227  0.66180153    -0.07640
C1167       C  0.75444803  0.03607567  0.63953480     0.05890
C1168       C  0.71576671  0.06531964  0.63152073    -0.02660
Br1169     Br  0.68789091  0.07195994  0.59663838    -0.02360
H1170       H  0.66328498  0.11156148  0.64330797     0.09800
H1171       H  0.80851437  0.03322109  0.66967430     0.07820
Br1172     Br  0.81567409  0.11164222  0.70080200    -0.02790
C1173       C  0.60750172  0.18050931  0.68997538    -0.09420
C1174       C  0.64873039  0.17666337  0.67463023     0.06780
C1175       C  0.64318339  0.19508949  0.64812975    -0.03190
C1176       C  0.59948475  0.21016806  0.63774207    -0.07640
C1177       C  0.55828278  0.21494843  0.65294827     0.05890
C1178       C  0.56339296  0.19688326  0.67963546    -0.02660
Br1179     Br  0.51360274  0.18890171  0.70423563    -0.02360
H1180       H  0.60962913  0.17272286  0.71097911     0.09800
H1181       H  0.59874400  0.22100097  0.61710096     0.07820
Br1182     Br  0.69371489  0.20374615  0.62369207    -0.02790
C1183       C  0.71883396  0.05193476  0.11527074    -0.09420
C1184       C  0.72019832  0.00491398  0.12459554     0.06780
C1185       C  0.67480117  0.98427804  0.12557545    -0.03190
C1186       C  0.63608974  0.00336673  0.11042410    -0.07640
C1187       C  0.63860335  0.04617965  0.09502028     0.05890
C1188       C  0.68218773  0.07042010  0.09919147    -0.02660
Br1189     Br  0.70273725  0.12359995  0.07980943    -0.02360
H1190       H  0.75067087  0.07266987  0.11707412     0.09800
H1191       H  0.60431153  0.98292136  0.11090052     0.07820
Br1192     Br  0.65997699  0.93928231  0.15260358    -0.02790
C1193       C  0.52357240  0.11538436  0.08705716    -0.09420
C1194       C  0.57255037  0.11289615  0.08129414     0.06780
C1195       C  0.58955567  0.16042560  0.07717587    -0.03190
C1196       C  0.56816764  0.19939035  0.09034284    -0.07640
C1197       C  0.52905389  0.19367321  0.10718507     0.05890
C1198       C  0.50233092  0.15326313  0.10066102    -0.02660
Br1199     Br  0.43461228  0.15476889  0.10115660    -0.02360
H1200       H  0.49972521  0.09111363  0.07759524     0.09800
H1201       H  0.58353181  0.23405920  0.08825640     0.07820
Br1202     Br  0.62677189  0.18119434  0.04761395    -0.02790
C1203       C  0.65198583  0.02585648  0.00514361    -0.09420
C1204       C  0.62158330  0.04824883  0.98691694     0.06780
C1205       C  0.59049476  0.08217304  0.99815787    -0.03190
C1206       C  0.58700303  0.08699525  0.02566166    -0.07640
C1207       C  0.61640455  0.06412657  0.04424123     0.05890
C1208       C  0.65088993  0.03380666  0.03291005    -0.02660
Br1209     Br  0.68973467  0.99041442  0.05213242    -0.02360
H1210       H  0.67519588  0.99890240  0.99792616     0.09800
H1211       H  0.55826074  0.10809398  0.03258199     0.07820
Br1212     Br  0.55073381  0.12715513  0.98007582    -0.02790
C1213       C  0.63055910  0.11183429  0.94138228    -0.09420
C1214       C  0.61026085  0.06734932  0.93670246     0.06780
C1215       C  0.58896216  0.05929358  0.91109492    -0.03190
C1216       C  0.57842676  0.09736806  0.89505128    -0.07640
C1217       C  0.59222991  0.14253931  0.90252453     0.05890
C1218       C  0.62265100  0.14910339  0.92449589    -0.02660
Br1219     Br  0.65057699  0.20812927  0.93518636    -0.02360
H1220       H  0.64897870  0.11964176  0.95968925     0.09800
H1221       H  0.55740841  0.09187468  0.87713896     0.07820
Br1222     Br  0.56998702  0.99973004  0.89594007    -0.02790
C1223       C  0.73696966  0.02609879  0.92384283    -0.09420
C1224       C  0.73443325  0.98556175  0.90747176     0.06780
C1225       C  0.70044293  0.95182088  0.91549214    -0.03190
C1226       C  0.66222329  0.96672605  0.92986129    -0.07640
C1227       C  0.66387590  0.00667531  0.94651052     0.05890
C1228       C  0.70679697  0.03289132  0.94531026    -0.02660
Br1229     Br  0.72882424  0.07862243  0.97100679    -0.02360
H1230       H  0.76320635  0.05269876  0.92084318     0.09800
H1231       H  0.63152301  0.94558033  0.92689681     0.07820
Br1232     Br  0.70366317  0.88433786  0.91293480    -0.02790
C1233       C  0.22758774  0.89978319  0.69558490    -0.09420
C1234       C  0.21461184  0.85920173  0.68112937     0.06780
C1235       C  0.21699533  0.86451171  0.65284215    -0.03190
C1236       C  0.23327609  0.90752489  0.64117671    -0.07640
C1237       C  0.23952535  0.94987519  0.65623580     0.05890
C1238       C  0.22947348  0.94392327  0.68400996    -0.02660
Br1239     Br  0.19667272  0.98498274  0.70779807    -0.02360
H1240       H  0.22863005  0.90022490  0.71698254     0.09800
H1241       H  0.23756447  0.90859953  0.61979190     0.07820
Br1242     Br  0.20121991  0.81365327  0.62921577    -0.02790
C1243       C  0.29958838  0.05586242  0.61533571    -0.09420
C1244       C  0.29715662  0.01192258  0.62861161     0.06780
C1245       C  0.33944819  0.98641394  0.62888708    -0.03190
C1246       C  0.37994809  0.00468204  0.61629756    -0.07640
C1247       C  0.38051223  0.04593654  0.59971356     0.05890
C1248       C  0.33861347  0.07276347  0.60162766    -0.02660
Br1249     Br  0.33170314  0.13818566  0.59386575    -0.02360
H1250       H  0.26909279  0.07796876  0.61479984     0.09800
H1251       H  0.41152432  0.98576667  0.62089019     0.07820
Br1252     Br  0.34717630  0.92729422  0.64630619    -0.02790
C1253       C  0.32533731  0.23373194  0.69973642    -0.09420
C1254       C  0.30799363  0.27754190  0.69158138     0.06780
C1255       C  0.25920791  0.27729847  0.68460775    -0.03190
C1256       C  0.23013990  0.24041825  0.69310819    -0.07640
C1257       C  0.24729160  0.20062045  0.70657087     0.05890
C1258       C  0.29697123  0.19741188  0.70865830    -0.02660
Br1259     Br  0.33121013  0.14989526  0.72773343    -0.02360
H1260       H  0.36238660  0.22802850  0.70060772     0.09800
H1261       H  0.19331456  0.24264227  0.68807873     0.07820
Br1262     Br  0.22987204  0.31221363  0.65634724    -0.02790
C1263       C  0.12984969  0.13224709  0.70862236    -0.09420
C1264       C  0.16046206  0.17000222  0.71618584     0.06780
C1265       C  0.13811877  0.20959084  0.72844691    -0.03190
C1266       C  0.08952354  0.20973787  0.73146416    -0.07640
C1267       C  0.06254715  0.18009527  0.71535802     0.05890
C1268       C  0.08136757  0.13667158  0.70903349    -0.02660
Br1269     Br  0.04280568  0.08638095  0.69556209    -0.02360
H1270       H  0.14264831  0.09851111  0.70231301     0.09800
H1271       H  0.07319382  0.24142284  0.73884079     0.07820
Br1272     Br  0.16522695  0.26973609  0.73675182    -0.02790
C1273       C  0.21479922  0.08013682  0.65465000    -0.09420
C1274       C  0.24230679  0.04143804  0.66174424     0.06780
C1275       C  0.26912868  0.04726847  0.68598762    -0.03190
C1276       C  0.25543176  0.08094584  0.70523412    -0.07640
C1277       C  0.22644044  0.11880164  0.69825081     0.05890
C1278       C  0.21150816  0.11967848  0.67091306    -0.02660
Br1279     Br  0.18773871  0.17320236  0.65264411    -0.02360
H1280       H  0.19852306  0.08178906  0.63513160     0.09800
H1281       H  0.26922747  0.07820065  0.72531765     0.07820
Br1282     Br  0.32100987  0.00831252  0.69607317    -0.02790
C1283       C  0.29092080  0.21755515  0.83542459    -0.09420
C1284       C  0.24366611  0.22110823  0.84375890     0.06780
C1285       C  0.23270366  0.26470930  0.85549668    -0.03190
C1286       C  0.26000045  0.30456541  0.84914511    -0.07640
C1287       C  0.29865232  0.30302321  0.83106509     0.05890
C1288       C  0.31890869  0.25739266  0.83039126    -0.02660
Br1289     Br  0.38491392  0.24512979  0.82704702    -0.02360
H1290       H  0.30596658  0.18375447  0.83156572     0.09800
H1291       H  0.25044704  0.33588773  0.85950046     0.07820
Br1292     Br  0.18726438  0.27252355  0.88304314    -0.02790
C1293       C  0.18775446  0.13436681  0.79303841    -0.09420
C1294       C  0.20657829  0.17484902  0.80554114     0.06780
C1295       C  0.22747374  0.20785119  0.78801738    -0.03190
C1296       C  0.24037539  0.19553888  0.76244314    -0.07640
C1297       C  0.22170344  0.15592183  0.74897095     0.05890
C1298       C  0.19528728  0.12451145  0.76559437    -0.02660
Br1299     Br  0.17033942  0.06576983  0.75386155    -0.02360
H1300       H  0.16966359  0.10868657  0.80511392     0.09800
H1301       H  0.25839976  0.22310747  0.75203871     0.07820
Br1302     Br  0.22415959  0.27477735  0.79184253    -0.02790
C1303       C  0.24157314  0.13259633  0.87812501    -0.09420
C1304       C  0.23371262  0.13453387  0.85011167     0.06780
C1305       C  0.25759816  0.09779491  0.83611866    -0.03190
C1306       C  0.27122735  0.05616787  0.84912920    -0.07640
C1307       C  0.27112183  0.05027680  0.87710531     0.05890
C1308       C  0.26158005  0.09295568  0.89123906    -0.02660
Br1309     Br  0.27751948  0.10128669  0.92826275    -0.02360
H1310       H  0.23213862  0.16266450  0.89010639     0.09800
H1311       H  0.28578488  0.03007220  0.83650377     0.07820
Br1312     Br  0.28893853  0.10383712  0.80234597    -0.02790
C1313       C  0.13590258  0.16249271  0.86835642    -0.09420
C1314       C  0.15496367  0.18861873  0.84718061     0.06780
C1315       C  0.12241026  0.22324422  0.83721043    -0.03190
C1316       C  0.08191871  0.23737666  0.85152875    -0.07640
C1317       C  0.06299697  0.21176291  0.87293908     0.05890
C1318       C  0.09216380  0.17212942  0.88066083    -0.02660
Br1319     Br  0.08051821  0.12659951  0.90822536    -0.02360
H1320       H  0.15484604  0.13288626  0.87583285     0.09800
H1321       H  0.06391736  0.26841547  0.84471757     0.07820
Br1322     Br  0.11795584  0.24299229  0.80109385    -0.02790
C1323       C  0.13083502  0.99060118  0.59958038    -0.09420
C1324       C  0.14256164  0.00857273  0.57417238     0.06780
C1325       C  0.19165043  0.00993375  0.56923373    -0.03190
C1326       C  0.22393076  0.00041138  0.59011200    -0.07640
C1327       C  0.21060156  0.99933746  0.61746974     0.05890
C1328       C  0.16185338  0.99444566  0.62135548    -0.02660
Br1329     Br  0.13240067  0.00353221  0.65478187    -0.02360
H1330       H  0.09480971  0.98274298  0.60405745     0.09800
H1331       H  0.26007260  0.99639078  0.58443640     0.07820
Br1332     Br  0.22009301  0.02064919  0.53530983    -0.02790
C1333       C  0.11334303  0.11705886  0.61567317    -0.09420
C1334       C  0.11133283  0.16151035  0.60431430     0.06780
C1335       C  0.10268774  0.16595116  0.57695281    -0.03190
C1336       C  0.09154879  0.12604708  0.56213838    -0.07640
C1337       C  0.09414134  0.08106234  0.57358175     0.05890
C1338       C  0.09299321  0.08063342  0.60174187    -0.02660
Br1339     Br  0.04173270  0.05336020  0.62107672    -0.02360
H1340       H  0.11282018  0.11422110  0.63725089     0.09800
H1341       H  0.07745859  0.13159593  0.54244529     0.07820
Br1342     Br  0.09725910  0.22612981  0.56019787    -0.02790
C1343       C  0.11706973  0.00036121  0.51121965    -0.09420
C1344       C  0.11314600  0.04046510  0.52716855     0.06780
C1345       C  0.11847148  0.08307669  0.51267862    -0.03190
C1346       C  0.10255971  0.08555548  0.48609456    -0.07640
C1347       C  0.09632659  0.04435328  0.47077848     0.05890
C1348       C  0.11436204  0.00293059  0.48350836    -0.02660
Br1349     Br  0.14948774  0.95405125  0.46667474    -0.02360
H1350       H  0.12797039  0.96773161  0.51997995     0.09800
H1351       H  0.10256772  0.11949823  0.47650987     0.07820
Br1352     Br  0.16751502  0.12798239  0.52136283    -0.02790
C1353       C  0.16766042  0.04993395  0.43316879    -0.09420
C1354       C  0.12459014  0.03190587  0.42397277     0.06780
C1355       C  0.12615764  0.00440335  0.40032965    -0.03190
C1356       C  0.16986685  0.99002866  0.38981833    -0.07640
C1357       C  0.21370253  0.00488637  0.40074591     0.05890
C1358       C  0.21066671  0.03692442  0.42310354    -0.02660
Br1359     Br  0.25935959  0.07040555  0.44311995    -0.02360
H1360       H  0.16786876  0.07576732  0.44898339     0.09800
H1361       H  0.16922438  0.96883949  0.37201118     0.07820
Br1362     Br  0.07178364  0.99351229  0.37810039    -0.02790
C1363       C  0.00536485  0.16275601  0.42904227    -0.09420
C1364       C  0.03092821  0.18849379  0.40980086     0.06780
C1365       C  0.07747202  0.17226874  0.40620827    -0.03190
C1366       C  0.09099612  0.12662318  0.41422964    -0.07640
C1367       C  0.06386600  0.09826663  0.43163018     0.05890
C1368       C  0.02305997  0.12147524  0.44149516    -0.02660
Br1369     Br  0.98969113  0.10019149  0.47231345    -0.02360
H1370       H  0.97139907  0.17541666  0.43502286     0.09800
H1371       H  0.12537093  0.11578426  0.40817258     0.07820
Br1372     Br  0.12891716  0.21401715  0.39987790    -0.02790
C1373       C  0.82976883  0.53079503  0.66029535    -0.09420
C1374       C  0.78642658  0.53127023  0.64617114     0.06780
C1375       C  0.76427688  0.57567854  0.64399974    -0.03190
C1376       C  0.78214872  0.61490162  0.65853394    -0.07640
C1377       C  0.82280899  0.61167534  0.67511760     0.05890
C1378       C  0.84619803  0.56784543  0.67560496    -0.02660
Br1379     Br  0.90361453  0.55510183  0.69525121    -0.02360
H1380       H  0.84953880  0.49892040  0.66215122     0.09800
H1381       H  0.76235541  0.64703822  0.65793633     0.07820
Br1382     Br  0.71222444  0.58743948  0.62068273    -0.02790
C1383       C  0.71641553  0.45142087  0.59687191    -0.09420
C1384       C  0.71965138  0.47690523  0.62107606     0.06780
C1385       C  0.67587829  0.48344538  0.63413370    -0.03190
C1386       C  0.63319669  0.46685880  0.62243202    -0.07640
C1387       C  0.63106918  0.44245357  0.59803029     0.05890
C1388       C  0.67541363  0.42958984  0.58798809    -0.02660
Br1389     Br  0.68717125  0.37121519  0.56995811    -0.02360
H1390       H  0.74708170  0.43923046  0.58689465     0.09800
H1391       H  0.60242909  0.46590202  0.63470215     0.07820
Br1392     Br  0.67094371  0.50948952  0.66930037    -0.02790
C1393       C  0.85835566  0.40051828  0.42939290    -0.09420
C1394       C  0.89994476  0.42723496  0.42892543     0.06780
C1395       C  0.89953017  0.46362436  0.40938688    -0.03190
C1396       C  0.85641933  0.48261407  0.40013762    -0.07640
C1397       C  0.81354580  0.45794979  0.40314013     0.05890
C1398       C  0.81749311  0.41284167  0.41542562    -0.02660
Br1399     Br  0.76860355  0.36636696  0.41780543    -0.02360
H1400       H  0.85789334  0.36798577  0.44000377     0.09800
H1401       H  0.85766748  0.51375318  0.38797024     0.07820
Br1402     Br  0.95285722  0.47673717  0.38741340    -0.02790
C1403       C  0.94771884  0.34858687  0.40890102    -0.09420
C1404       C  0.95554804  0.35762509  0.43643347     0.06780
C1405       C  0.97897135  0.32004633  0.45040426    -0.03190
C1406       C  0.99355720  0.27831060  0.43678740    -0.07640
C1407       C  0.98519166  0.27071093  0.40912222     0.05890
C1408       C  0.95959061  0.30692308  0.39592890    -0.02660
Br1409     Br  0.94193317  0.30537362  0.35867537    -0.02360
H1410       H  0.93277141  0.37498153  0.39608963     0.09800
H1411       H  0.01373006  0.25288102  0.44793762     0.07820
Br1412     Br  0.00054071  0.32484089  0.48690258    -0.02790
C1413       C  0.89908278  0.38954558  0.52092317    -0.09420
C1414       C  0.91481214  0.43229625  0.53327576     0.06780
C1415       C  0.91750934  0.47011089  0.51517536    -0.03190
C1416       C  0.91710082  0.46103775  0.48759922    -0.07640
C1417       C  0.92257983  0.41498704  0.47664715     0.05890
C1418       C  0.90521154  0.37951068  0.49368402    -0.02660
Br1419     Br  0.88175684  0.31894169  0.48227896    -0.02360
H1420       H  0.88007030  0.36333696  0.53151158     0.09800
H1421       H  0.91278802  0.49110382  0.47511261     0.07820
Br1422     Br  0.92028046  0.53503299  0.52581488    -0.02790
C1423       C  0.85219664  0.47456295  0.57345022    -0.09420
C1424       C  0.88899887  0.44607184  0.58243461     0.06780
C1425       C  0.88800172  0.43315836  0.60979169    -0.03190
C1426       C  0.84747498  0.43941531  0.62481651    -0.07640
C1427       C  0.81042397  0.46837200  0.61598702     0.05890
C1428       C  0.81667286  0.48956604  0.59039492    -0.02660
Br1429     Br  0.77807574  0.53775139  0.57533326    -0.02360
H1430       H  0.85184381  0.48780850  0.55339451     0.09800
H1431       H  0.84791163  0.42595295  0.64490227     0.07820
Br1432     Br  0.94317478  0.41775823  0.63008159    -0.02790
C1433       C  0.91808097  0.34717970  0.57228737    -0.09420
C1434       C  0.95016187  0.38533283  0.57109763     0.06780
C1435       C  0.99848074  0.37324831  0.57075720    -0.03190
C1436       C  0.01096462  0.32849786  0.56249525    -0.07640
C1437       C  0.98117958  0.29208785  0.57019646     0.05890
C1438       C  0.93320865  0.30091273  0.56925581    -0.02660
Br1439     Br  0.88881594  0.25042927  0.56522827    -0.02360
H1440       H  0.88076188  0.35346295  0.57370073     0.09800
H1441       H  0.04821199  0.32114154  0.56188458     0.07820
Br1442     Br  0.04382204  0.39913745  0.59576733    -0.02790
C1443       C  0.79671688  0.25767241  0.68935140    -0.09420
C1444       C  0.77645511  0.29116785  0.70682120     0.06780
C1445       C  0.72880805  0.28334250  0.71343357    -0.03190
C1446       C  0.70471201  0.24428566  0.70357944    -0.07640
C1447       C  0.72546076  0.20995083  0.68695147     0.05890
C1448       C  0.77134734  0.22015520  0.67788556    -0.02660
Br1449     Br  0.80275729  0.18870778  0.64927570    -0.02360
H1450       H  0.83300723  0.25996932  0.68387487     0.09800
H1451       H  0.66964139  0.23901255  0.71094688     0.07820
Br1452     Br  0.69084916  0.32750281  0.73271315    -0.02790
C1453       C  0.77247233  0.46163012  0.68702214    -0.09420
C1454       C  0.76578496  0.44713985  0.66002872     0.06780
C1455       C  0.75330039  0.39936297  0.65698883    -0.03190
C1456       C  0.74629593  0.37136859  0.67939394    -0.07640
C1457       C  0.77153138  0.38066124  0.70366472     0.05890
C1458       C  0.78218092  0.42917558  0.70742849    -0.02660
Br1459     Br  0.81523167  0.45598764  0.73706403    -0.02360
H1460       H  0.77489217  0.49810230  0.69246108     0.09800
H1461       H  0.73324330  0.33690583  0.67442444     0.07820
Br1462     Br  0.75708604  0.36422884  0.62437226    -0.02790
C1463       C  0.93423705  0.35404723  0.69967802    -0.09420
C1464       C  0.93117763  0.33606287  0.67393937     0.06780
C1465       C  0.88815238  0.33350716  0.66063750    -0.03190
C1466       C  0.84850414  0.34211427  0.67426147    -0.07640
C1467       C  0.84917581  0.34708004  0.70199377     0.05890
C1468       C  0.89329488  0.36034410  0.71414219    -0.02660
Br1469     Br  0.90443627  0.38565618  0.74923244    -0.02360
H1470       H  0.96817987  0.35789236  0.70948188     0.09800
H1471       H  0.81692765  0.33365828  0.66363111     0.07820
Br1472     Br  0.87836555  0.30497174  0.62657266    -0.02790
C1473       C  0.75925419  0.25887864  0.81882843    -0.09420
C1474       C  0.80231388  0.25545414  0.83285158     0.06780
C1475       C  0.81615296  0.20761407  0.83842236    -0.03190
C1476       C  0.78833581  0.16900263  0.82986269    -0.07640
C1477       C  0.74990556  0.17375939  0.81217611     0.05890
C1478       C  0.73901217  0.22102633  0.80517373    -0.02660
Br1479     Br  0.69682248  0.23895812  0.77708688    -0.02360
H1480       H  0.74444238  0.29284586  0.81500028     0.09800
H1481       H  0.79835053  0.13479654  0.83679323     0.07820
Br1482     Br  0.87053517  0.18519883  0.85684547    -0.02790
C1483       C  0.84646311  0.28780326  0.78371717    -0.09420
C1484       C  0.82979722  0.31907825  0.80309380     0.06780
C1485       C  0.79766048  0.35425836  0.79250323    -0.03190
C1486       C  0.78934577  0.35931684  0.76496556    -0.07640
C1487       C  0.81068791  0.33125963  0.74607882     0.05890
C1488       C  0.83940778  0.29406895  0.75625184    -0.02660
Br1489     Br  0.87418555  0.25076402  0.73483337    -0.02360
H1490       H  0.86499656  0.25670995  0.79018988     0.09800
H1491       H  0.76350384  0.38431682  0.75820700     0.07820
Br1492     Br  0.75134213  0.39036469  0.81095786    -0.02790
C1493       C  0.84024651  0.38714143  0.84976396    -0.09420
C1494       C  0.81494004  0.34482977  0.85152301     0.06780
C1495       C  0.77399821  0.34744953  0.86784978    -0.03190
C1496       C  0.75787407  0.39151556  0.87826852    -0.07640
C1497       C  0.78385630  0.43414923  0.87728646     0.05890
C1498       C  0.82552633  0.42996802  0.86110187    -0.02660
Br1499     Br  0.86761362  0.48000174  0.85151794    -0.02360
H1500       H  0.87170171  0.38736273  0.83785330     0.09800
H1501       H  0.72316590  0.39190440  0.88554812     0.07820
Br1502     Br  0.73746414  0.29373088  0.87788701    -0.02790
C1503       C  0.89023891  0.28592772  0.87247641    -0.09420
C1504       C  0.88590659  0.29027000  0.84470153     0.06780
C1505       C  0.92888575  0.27949724  0.83100123    -0.03190
C1506       C  0.96721395  0.25559585  0.84400755    -0.07640
C1507       C  0.97069048  0.24998240  0.87210324     0.07530
C1508       C  0.93052145  0.26876767  0.88576116    -0.02660
Br1509     Br  0.92268093  0.27428624  0.92310266    -0.02360
H1510       H  0.86024077  0.29450010  0.88452043     0.09800
H1511       H  0.99564252  0.24426284  0.83171345     0.07820
Br1512     Br  0.94752543  0.30798562  0.79827283    -0.02790
C1513       C  0.73632574  0.04239402  0.35991962    -0.09420
C1514       C  0.75534573  0.02575926  0.38407573     0.06780
C1515       C  0.79010823  0.05570786  0.39550412    -0.03190
C1516       C  0.81431221  0.08927006  0.38007580    -0.07640
C1517       C  0.79769906  0.10573602  0.35494988     0.05890
C1518       C  0.75529907  0.08125097  0.34589919    -0.02660
Br1519     Br  0.71605163  0.09433096  0.31574983    -0.02360
H1520       H  0.70710396  0.02303332  0.35112307     0.09800
H1521       H  0.84477973  0.10439118  0.38956966     0.07820
Br1522     Br  0.78875227  0.07107163  0.43260267    -0.02790
C1523       C  0.69685855  0.91289610  0.41732385    -0.09420
C1524       C  0.70051623  0.95930715  0.40726436     0.06780
C1525       C  0.66318291  0.98945840  0.41463876    -0.03190
C1526       C  0.62522395  0.97220005  0.42998846    -0.07640
C1527       C  0.61830501  0.92394996  0.43695153     0.05890
C1528       C  0.65928397  0.89673545  0.43283227    -0.02660
Br1529     Br  0.67535205  0.84345688  0.45360104    -0.02360
H1530       H  0.72584779  0.88912868  0.41434326     0.09800
H1531       H  0.60311066  0.99897696  0.43802295     0.07820
Br1532     Br  0.66117718  0.05563652  0.40762303    -0.02790
C1533       C  0.97634917  0.99104344  0.57542066    -0.09420
C1534       C  0.98088797  0.94153712  0.57451470     0.06780
C1535       C  0.02136795  0.92575411  0.56040597    -0.03190
C1536       C  0.05942855  0.95542452  0.55663257    -0.07640
C1537       C  0.05601321  0.00426637  0.55921379     0.05890
C1538       C  0.01038568  0.02138042  0.56477387    -0.02660
Br1539     Br  0.98867315  0.08330499  0.55612880    -0.02360
H1540       H  0.94403754  0.00695315  0.58150132     0.09800
H1541       H  0.09237313  0.93912137  0.55214647     0.07820
Br1542     Br  0.03095509  0.86429326  0.54561369    -0.02790
C1543       C  0.84907923  0.91602465  0.58584572    -0.09420
C1544       C  0.89415038  0.93033579  0.59449210     0.06780
C1545       C  0.89460759  0.96388808  0.61552381    -0.03190
C1546       C  0.85236122  0.98689285  0.62317716    -0.07640
C1547       C  0.80705439  0.96948414  0.61537160     0.05890
C1548       C  0.80846663  0.92830062  0.59888524    -0.02660
Br1549     Br  0.76060226  0.88012960  0.59457747    -0.02360
H1550       H  0.84517754  0.88925116  0.57066030     0.09800
H1551       H  0.85543719  0.01416669  0.63795023     0.07820
Br1552     Br  0.94944023  0.97423597  0.63726213    -0.02790
C1553       C  0.94650988  0.78840222  0.62457319    -0.09420
C1554       C  0.99538064  0.77935814  0.62599381     0.06780
C1555       C  0.02237242  0.81031297  0.61034691    -0.03190
C1556       C  0.00378656  0.85414361  0.60265702    -0.07640
C1557       C  0.95523931  0.86124815  0.59660908     0.05890
C1558       C  0.92666427  0.82497910  0.60864102    -0.02660
Br1559     Br  0.86054514  0.81736371  0.60535276    -0.02360
H1560       H  0.92245663  0.76487512  0.63436755     0.09800
H1561       H  0.02964951  0.88123556  0.60029084     0.07820
Br1562     Br  0.08657359  0.79826543  0.60147094    -0.02790
C1563       C  0.00137908  0.95039726  0.46472219    -0.09420
C1564       C  0.95632094  0.95679204  0.45425156     0.06780
C1565       C  0.95336259  0.99737456  0.43679154    -0.03190
C1566       C  0.99410999  0.02108640  0.42809750    -0.07640
C1567       C  0.03889022  0.00903456  0.43763718     0.05890
C1568       C  0.04064817  0.96507149  0.45045312    -0.02660
Br1569     Br  0.06442318  0.91419097  0.42945586    -0.02360
H1570       H  0.00628682  0.93375766  0.48364348     0.09800
H1571       H  0.99001710  0.05135636  0.41536374     0.07820
Br1572     Br  0.89885628  0.03332574  0.42809073    -0.02790
C1573       C  0.91064626  0.86984358  0.50561856    -0.09420
C1574       C  0.90912065  0.91472219  0.49251832     0.06780
C1575       C  0.90401852  0.95342222  0.50960589    -0.03190
C1576       C  0.90644168  0.94716721  0.53718613    -0.07640
C1577       C  0.92047519  0.90417861  0.54967319     0.05890
C1578       C  0.91798458  0.86431498  0.53317034    -0.02660
Br1579     Br  0.92384527  0.80102692  0.54535174    -0.02360
H1580       H  0.90855442  0.83725883  0.49478336     0.09800
H1581       H  0.89982945  0.97789352  0.54907049     0.07820
Br1582     Br  0.89478283  0.01657680  0.49761713    -0.02790
C1583       C  0.82859835  0.94695826  0.45650676    -0.09420
C1584       C  0.87123949  0.93447541  0.44489728     0.06780
C1585       C  0.87128452  0.93067898  0.41657949    -0.03190
C1586       C  0.83074574  0.93841035  0.40158352    -0.07640
C1587       C  0.78935594  0.95701746  0.41210930     0.05890
C1588       C  0.78899564  0.95989104  0.44101694    -0.02660
Br1589     Br  0.73818142  0.98053020  0.46327728    -0.02360
H1590       H  0.82582426  0.94758445  0.47794042     0.09800
H1591       H  0.83317122  0.92859330  0.38124943     0.07820
Br1592     Br  0.92661880  0.91758672  0.39595465    -0.02790
C1593       C  0.78130405  0.91905144  0.32070892    -0.09420
C1594       C  0.75825290  0.87490891  0.32084418     0.06780
C1595       C  0.71926569  0.87332053  0.33878634    -0.03190
C1596       C  0.71305177  0.90889659  0.35804133    -0.07640
C1597       C  0.74838998  0.94239021  0.36453649     0.05890
C1598       C  0.78133727  0.94869804  0.34336000    -0.02660
Br1599     Br  0.83302677  0.99160345  0.34435826    -0.02360
H1600       H  0.80779729  0.92541150  0.30587148     0.09800
H1601       H  0.68091222  0.90729859  0.36900829     0.07820
Br1602     Br  0.67247885  0.82530180  0.34239509    -0.02790
C1603       C  0.84205289  0.79194430  0.24227367    -0.09420
C1604       C  0.82016051  0.81972726  0.22270042     0.06780
C1605       C  0.78652609  0.85345558  0.23332292    -0.03190
C1606       C  0.77973380  0.85871798  0.26092763    -0.07640
C1607       C  0.79779967  0.82697903  0.27930600     0.05890
C1608       C  0.82905892  0.79227399  0.26900916    -0.02660
Br1609     Br  0.85936680  0.74407465  0.28962714    -0.02360
H1610       H  0.86722115  0.76591638  0.23667321     0.09800
H1611       H  0.75636106  0.88566230  0.26801649     0.07820
Br1612     Br  0.74152460  0.89301117  0.21517337    -0.02790
C1613       C  0.77371195  0.84810089  0.15391832    -0.09420
C1614       C  0.80801187  0.84738816  0.17498776     0.06780
C1615       C  0.82890367  0.89157497  0.18083361    -0.03190
C1616       C  0.80869090  0.93287392  0.17155140    -0.07640
C1617       C  0.77584546  0.93546940  0.14987315     0.05890
C1618       C  0.76075934  0.89049674  0.14021911    -0.02660
Br1619     Br  0.72871300  0.88370173  0.10654526    -0.02360
H1620       H  0.75842310  0.81567653  0.14680469     0.09800
H1621       H  0.82242286  0.96313055  0.18163803     0.07820
Br1622     Br  0.88401114  0.90087096  0.20324479    -0.02790
C1623       C  0.92014509  0.79121401  0.19349240    -0.09420
C1624       C  0.87629868  0.79208893  0.17939102     0.06780
C1625       C  0.87985287  0.77623958  0.15242114    -0.03190
C1626       C  0.92325195  0.76621150  0.14042751    -0.07640
C1627       C  0.96703204  0.76265953  0.15425102     0.05890
C1628       C  0.96283073  0.77290719  0.18232739    -0.02660
Br1629     Br  0.00886042  0.75648533  0.20874369    -0.02360
H1630       H  0.92133732  0.80182655  0.21412024     0.09800
H1631       H  0.92171001  0.75682644  0.11951082     0.07820
Br1632     Br  0.82701414  0.75907057  0.13030395    -0.02790
C1633       C  0.97492025  0.80344767  0.43909960    -0.09420
C1634       C  0.93684948  0.78111527  0.42680864     0.06780
C1635       C  0.89176870  0.79525384  0.43294371    -0.03190
C1636       C  0.88624792  0.83891807  0.44487992    -0.07640
C1637       C  0.92568878  0.86854628  0.45141510     0.05890
C1638       C  0.96943344  0.84450673  0.45316409    -0.02660
Br1639     Br  0.01556662  0.84634388  0.48106552    -0.02360
H1640       H  0.00955052  0.78793372  0.43797686     0.09800
H1641       H  0.85072737  0.84966942  0.44896925     0.07820
Br1642     Br  0.83820173  0.75584007  0.42697615    -0.02790
C1643       C  0.87498068  0.85808298  0.30731098    -0.09420
C1644       C  0.83703536  0.84062758  0.32296611     0.06780
C1645       C  0.84612526  0.83837864  0.35075970    -0.03190
C1646       C  0.89237151  0.83357967  0.35915908    -0.07640
C1647       C  0.92800348  0.83087441  0.34031539     0.05890
C1648       C  0.92085392  0.85113188  0.31558656    -0.02660
Br1649     Br  0.97057326  0.85727988  0.29049411    -0.02360
H1650       H  0.86990882  0.87209242  0.28748513     0.09800
H1651       H  0.89899842  0.82229441  0.37935610     0.07820
Br1652     Br  0.79922721  0.83262199  0.37781762    -0.02790
C1653       C  0.21266651  0.35228357  0.36551785    -0.09420
C1654       C  0.18705028  0.35604326  0.34086479     0.06780
C1655       C  0.17828780  0.40285438  0.33248269    -0.03190
C1656       C  0.19913647  0.44071179  0.34545577    -0.07640
C1657       C  0.22847738  0.43860707  0.36862955     0.05890
C1658       C  0.23288011  0.39232849  0.37916987    -0.02660
Br1659     Br  0.26474396  0.38119970  0.41231403    -0.02360
H1660       H  0.21728320  0.31783784  0.37419515     0.09800
H1661       H  0.18934634  0.47347083  0.33666625     0.07820
Br1662     Br  0.13016137  0.42189769  0.30686005    -0.02790
C1663       C  0.34368180  0.55875674  0.42016158    -0.09420
C1664       C  0.38424031  0.53249297  0.41829878     0.06780
C1665       C  0.37847479  0.48900532  0.40341650    -0.03190
C1666       C  0.33369593  0.47449559  0.39267221    -0.07640
C1667       C  0.29245498  0.50060150  0.39641233     0.05890
C1668       C  0.29957380  0.54384799  0.41143803    -0.02660
Br1669     Br  0.25471766  0.58980883  0.42361544    -0.02360
H1670       H  0.34560475  0.59171706  0.43084112     0.09800
H1671       H  0.33139831  0.44264621  0.38092790     0.07820
Br1672     Br  0.42798468  0.44683462  0.39426787    -0.02790
C1673       C  0.97156430  0.50568170  0.59058668    -0.09420
C1674       C  0.97144128  0.47329080  0.56876759     0.06780
C1675       C  0.01320783  0.47249448  0.55405254    -0.03190
C1676       C  0.05349348  0.49434832  0.56407525    -0.07640
C1677       C  0.05466570  0.52939098  0.58416360     0.05890
C1678       C  0.01208726  0.53188090  0.59868340    -0.02660
Br1679     Br  0.00967512  0.55773188  0.63396188    -0.02360
H1680       H  0.94101046  0.50926254  0.60285071     0.09800
H1681       H  0.08437832  0.47728569  0.55778692     0.07820
Br1682     Br  0.02333959  0.43501215  0.52273895    -0.02790
C1683       C  0.14474537  0.49946253  0.61264817    -0.09420
C1684       C  0.14237808  0.54524209  0.60148495     0.06780
C1685       C  0.18568940  0.56956874  0.59980222    -0.03190
C1686       C  0.22690912  0.54876863  0.60797691    -0.07640
C1687       C  0.23036180  0.50734132  0.62295084     0.05890
C1688       C  0.18795285  0.47994951  0.62233753    -0.02660
Br1689     Br  0.18702065  0.41325879  0.62589208    -0.02360
H1690       H  0.11375978  0.47739693  0.61228228     0.09800
H1691       H  0.25747497  0.56426121  0.59989928     0.07820
Br1692     Br  0.19430535  0.63218060  0.58626532    -0.02790
C1693       C  0.04382716  0.63924294  0.58960953    -0.09420
C1694       C  0.08211942  0.61380284  0.60042279     0.06780
C1695       C  0.09953426  0.63280537  0.62543311    -0.03190
C1696       C  0.08352202  0.67609294  0.63574808    -0.07640
C1697       C  0.04410893  0.70067065  0.62581281     0.05890
C1698       C  0.02556238  0.68110404  0.60121278    -0.02660
Br1699     Br  0.97040738  0.70366713  0.58330458    -0.02360
H1700       H  0.02686956  0.62555050  0.57173594     0.09800
H1701       H  0.10131296  0.68819760  0.65336137     0.07820
Br1702     Br  0.13683418  0.60031821  0.65200053    -0.02790
C1703       C  0.98214843  0.49126478  0.44689034    -0.09420
C1704       C  0.98797368  0.44231097  0.44749033     0.06780
C1705       C  0.03491213  0.42854351  0.45404455    -0.03190
C1706       C  0.06780159  0.46124563  0.46457198    -0.07640
C1707       C  0.06138046  0.51043057  0.46387720     0.05890
C1708       C  0.01885730  0.52308916  0.45003930    -0.02660
Br1709     Br  0.01097526  0.56805843  0.42190279    -0.02360
H1710       H  0.94933684  0.50627424  0.44074315     0.09800
H1711       H  0.10254936  0.44824985  0.46774554     0.07820
Br1712     Br  0.06650920  0.37593254  0.43886297    -0.02790
C1713       C  0.12240865  0.59825912  0.51082806    -0.09420
C1714       C  0.12144189  0.55166429  0.49944814     0.06780
C1715       C  0.13529694  0.51714689  0.51829906    -0.03190
C1716       C  0.14102879  0.52992510  0.54531122    -0.07640
C1717       C  0.11750885  0.56957115  0.55632871     0.05890
C1718       C  0.11456220  0.60728874  0.53801159    -0.02660
Br1719     Br  0.10770924  0.67293030  0.54626521    -0.02360
H1720       H  0.12631076  0.62919355  0.49869519     0.09800
H1721       H  0.15549964  0.50329972  0.55830476     0.07820
Br1722     Br  0.15107875  0.45294184  0.51104324    -0.02790
C1723       C  0.12804030  0.51658666  0.42194034    -0.09420
C1724       C  0.14358136  0.52196450  0.44878813     0.06780
C1725       C  0.19086782  0.50909369  0.45369584    -0.03190
C1726       C  0.21774203  0.48959080  0.43292301    -0.07640
C1727       C  0.20480330  0.49429051  0.40537563     0.05890
C1728       C  0.15709902  0.50565320  0.40069209    -0.02660
Br1729     Br  0.12588604  0.51104755  0.36676045    -0.02360
H1730       H  0.09260252  0.52491248  0.41665351     0.09800
H1731       H  0.25237209  0.47739922  0.43840444     0.07820
Br1732     Br  0.22711554  0.52883534  0.48426670    -0.02790
C1733       C  0.04360231  0.66116517  0.45217108    -0.09420
C1734       C  0.06680581  0.66911926  0.42807561     0.06780
C1735       C  0.10926104  0.64657270  0.42368145    -0.03190
C1736       C  0.12719076  0.61734079  0.44275394    -0.07640
C1737       C  0.09499529  0.59398817  0.45892112     0.05890
C1738       C  0.05578397  0.62153193  0.46725578    -0.02660
Br1739     Br  0.01376895  0.60402441  0.49533007    -0.02360
H1740       H  0.01100329  0.67903635  0.45620254     0.09800
H1741       H  0.16175669  0.60367338  0.43955925     0.07820
Br1742     Br  0.12375713  0.62432668  0.38960588    -0.02790
C1743       C  0.14326955  0.59759996  0.31563527    -0.09420
C1744       C  0.17328061  0.63656639  0.32165594     0.06780
C1745       C  0.15519484  0.67221060  0.33761250    -0.03190
C1746       C  0.10729591  0.67924592  0.33672169    -0.07640
C1747       C  0.07682053  0.64520145  0.32570253     0.05890
C1748       C  0.09461869  0.60212292  0.31736444    -0.02660
Br1749     Br  0.05458314  0.55242071  0.30465017    -0.02360
H1750       H  0.15700805  0.56677610  0.30587008     0.09800
H1751       H  0.09379618  0.71054265  0.34599366     0.07820
Br1752     Br  0.19116633  0.70584506  0.36449846    -0.02790
C1753       C  0.25478861  0.55343288  0.31370310    -0.09420
C1754       C  0.24727455  0.60022104  0.32244016     0.06780
C1755       C  0.25378636  0.60594168  0.35016170    -0.03190
C1756       C  0.23043726  0.57167415  0.36465312    -0.07640
C1757       C  0.24318580  0.52524868  0.35980647     0.05890
C1758       C  0.26249774  0.51807827  0.33335254    -0.02660
Br1759     Br  0.29846197  0.46446178  0.32262594    -0.02360
H1760       H  0.25415666  0.54376173  0.29291984     0.09800
H1761       H  0.20732505  0.58124397  0.38025791     0.07820
Br1762     Br  0.31969820  0.60315267  0.36004087    -0.02790
C1763       C  0.22540461  0.60896954  0.23164607    -0.09420
C1764       C  0.18512530  0.63045885  0.21981077     0.06780
C1765       C  0.15101875  0.64239550  0.23899487    -0.03190
C1766       C  0.16361863  0.64587064  0.26608369    -0.07640
C1767       C  0.20886514  0.63425536  0.27665880     0.05890
C1768       C  0.24054575  0.61709486  0.25803392    -0.02660
Br1769     Br  0.30613878  0.60824886  0.26604040    -0.02360
H1770       H  0.24570756  0.58399004  0.22116999     0.09800
H1771       H  0.13667591  0.65947843  0.27871979     0.07820
Br1772     Br  0.08509638  0.65219054  0.23216040    -0.02790
C1773       C  0.20197702  0.60755694  0.14651969    -0.09420
C1774       C  0.21902968  0.62060321  0.17205705     0.06780
C1775       C  0.26533878  0.60122838  0.17741558    -0.03190
C1776       C  0.27863068  0.55768637  0.16624736    -0.07640
C1777       C  0.25550318  0.53910960  0.14378910     0.05890
C1778       C  0.22384730  0.57173618  0.13138685    -0.02660
Br1779     Br  0.22144380  0.57989471  0.09335642    -0.02360
H1780       H  0.17440802  0.62770704  0.13711065     0.09800
H1781       H  0.30833709  0.53913678  0.17464576     0.07820
Br1782     Br  0.31559811  0.63039825  0.19798562    -0.02790
C1783       C  0.13487180  0.72515507  0.17340003    -0.09420
C1784       C  0.14192653  0.67622123  0.17810505     0.06780
C1785       C  0.10232584  0.64897688  0.17023022    -0.03190
C1786       C  0.06207550  0.66916410  0.15749896    -0.07640
C1787       C  0.05410101  0.71895433  0.15474654     0.05890
C1788       C  0.09169340  0.74605165  0.16568665    -0.02660
Br1789     Br  0.08806111  0.81266348  0.17116827    -0.02360
H1790       H  0.16238664  0.74950014  0.17734449     0.09800
H1791       H  0.03727772  0.64355007  0.15039848     0.07820
Br1792     Br  0.09788801  0.58418348  0.17885392    -0.02790
C1793       C  0.18134690  0.96761931  0.14485245    -0.09420
C1794       C  0.22105385  0.98234343  0.12962031     0.06780
C1795       C  0.21193453  0.97959836  0.10222167    -0.03190
C1796       C  0.18192457  0.94384392  0.09296538    -0.07640
C1797       C  0.13712842  0.93880166  0.10422309     0.05890
C1798       C  0.13888721  0.94922198  0.13239662    -0.02660
Br1799     Br  0.09129906  0.92995891  0.15644427    -0.02360
H1800       H  0.18379387  0.96863155  0.16639046     0.09800
H1801       H  0.19090822  0.92718455  0.07441903     0.07820
Br1802     Br  0.23906632  0.02094062  0.07656113    -0.02790
C1803       C  0.25861617  0.06098822  0.17021776    -0.09420
C1804       C  0.28483406  0.03878757  0.15034272     0.06780
C1805       C  0.32002372  0.06878865  0.13927623    -0.03190
C1806       C  0.33908100  0.10744665  0.15382541    -0.07640
C1807       C  0.31948713  0.12422840  0.17778869     0.05890
C1808       C  0.27408227  0.10318292  0.18305677    -0.02660
Br1809     Br  0.23058083  0.12566032  0.20868240    -0.02360
H1810       H  0.22721354  0.04368426  0.17724492     0.09800
H1811       H  0.36724132  0.12662687  0.14467578     0.07820
Br1812     Br  0.33451677  0.06923317  0.10210253    -0.02790
C1813       C  0.53228978  0.92203011  0.95006178    -0.09420
C1814       C  0.48710575  0.94278444  0.94788837     0.06780
C1815       C  0.48619163  0.99192002  0.95372201    -0.03190
C1816       C  0.52809928  0.01725541  0.95560327    -0.07640
C1817       C  0.57258870  0.99621378  0.95785944     0.05890
C1818       C  0.57182157  0.94672321  0.95966459    -0.02660
Br1819     Br  0.62147965  0.90959225  0.97550783    -0.02360
H1820       H  0.53710150  0.88506021  0.94668032     0.09800
H1821       H  0.52513576  0.05437880  0.95413975     0.07820
Br1822     Br  0.43237999  0.03105060  0.95972773    -0.02790
C1823       C  0.40500948  0.97149393  0.91155361    -0.09420
C1824       C  0.40010896  0.93192793  0.92883805     0.06780
C1825       C  0.35430496  0.91225710  0.92870175    -0.03190
C1826       C  0.31674730  0.93371271  0.91509524    -0.07640
C1827       C  0.31905973  0.97803251  0.90229181     0.05890
C1828       C  0.36581075  0.99570290  0.89979566    -0.02660
Br1829     Br  0.38068262  0.05113859  0.88003035    -0.02360
H1830       H  0.43967280  0.98537671  0.90779274     0.09800
H1831       H  0.28385234  0.91591813  0.91627291     0.07820
Br1832     Br  0.33730492  0.85670512  0.94763604    -0.02790
C1833       C  0.47253543  0.86723843  0.90451409    -0.09420
C1834       C  0.45710360  0.86253648  0.93109209     0.06780
C1835       C  0.46236702  0.81620067  0.94165029    -0.03190
C1836       C  0.49221422  0.78315556  0.92916246    -0.07640
C1837       C  0.50349718  0.78560359  0.90179813     0.05890
C1838       C  0.49152704  0.82972334  0.88961083    -0.02660
Br1839     Br  0.49480745  0.84191767  0.85203685    -0.02360
H1840       H  0.46835357  0.90072987  0.89466273     0.09800
H1841       H  0.50279722  0.75342294  0.94077030     0.07820
Br1842     Br  0.42393013  0.78930899  0.96913189    -0.02790
C1843       C  0.52857064  0.01671178  0.09437463    -0.09420
C1844       C  0.55790680  0.02283706  0.07256916     0.06780
C1845       C  0.54236840  0.99995538  0.04882800    -0.03190
C1846       C  0.49515161  0.98852648  0.04452845    -0.07640
C1847       C  0.46389988  0.98331131  0.06598576     0.05890
C1848       C  0.48135050  0.00343650  0.09067420    -0.02660
Br1849     Br  0.44535433  0.04203398  0.11353780    -0.02360
H1850       H  0.53912845  0.03321521  0.11304695     0.09800
H1851       H  0.48727216  0.97334884  0.02528969     0.07820
Br1852     Br  0.58029661  0.95243367  0.03343355    -0.02790
C1853       C  0.44681783  0.88632114  0.02402301    -0.09420
C1854       C  0.41988945  0.92341400  0.03467758     0.06780
C1855       C  0.39648147  0.95124509  0.01535074    -0.03190
C1856       C  0.39663142  0.93847913  0.98796424    -0.07640
C1857       C  0.42954730  0.90618905  0.97711785     0.05890
C1858       C  0.45718304  0.88235334  0.99699868    -0.02660
Br1859     Br  0.51445407  0.84698715  0.99298918    -0.02360
H1860       H  0.46699075  0.86359048  0.03682011     0.09800
H1861       H  0.37461975  0.95899575  0.97488319     0.07820
Br1862     Br  0.36850702  0.01031054  0.02453303    -0.02790
C1863       C  0.39457825  0.95264282  0.11058542    -0.09420
C1864       C  0.38474768  0.94664898  0.08306834     0.06780
C1865       C  0.33633462  0.93793508  0.07730305    -0.03190
C1866       C  0.30343234  0.94238072  0.09783546    -0.07640
C1867       C  0.31305435  0.96729387  0.12187967     0.05890
C1868       C  0.36150067  0.96776743  0.12882337    -0.02660
Br1869     Br  0.38924484  0.98881922  0.16188494    -0.02360
H1870       H  0.42994162  0.94823484  0.11817810     0.09800
H1871       H  0.27096219  0.92401905  0.09470437     0.07820
Br1872     Br  0.30933123  0.91286203  0.04483635    -0.02790
C1873       C  0.89155586  0.50290965  0.12690496    -0.09420
C1874       C  0.89208768  0.53121671  0.10390333     0.06780
C1875       C  0.84675374  0.54015171  0.09305910    -0.03190
C1876       C  0.80816997  0.51191798  0.09927623    -0.07640
C1877       C  0.80638066  0.48418248  0.12272830     0.05890
C1878       C  0.85043310  0.48025086  0.13653069    -0.02660
Br1879     Br  0.85702202  0.44906583  0.17028100    -0.02360
H1880       H  0.92206022  0.50390289  0.13976656     0.09800
H1881       H  0.77709545  0.52147262  0.08840058     0.07820
Br1882     Br  0.82934281  0.59921821  0.07705867    -0.02790
C1883       C  0.69828279  0.41914934  0.15654880    -0.09420
C1884       C  0.74292119  0.42344369  0.14547462     0.06780
C1885       C  0.76747085  0.37982945  0.14410524    -0.03190
C1886       C  0.75026442  0.33910741  0.15812422    -0.07640
C1887       C  0.70970042  0.34105899  0.17461180     0.05890
C1888       C  0.68486240  0.38355808  0.17336967    -0.02660
Br1889     Br  0.63604968  0.40262345  0.19664702    -0.02360
H1890       H  0.67358843  0.44598807  0.15429456     0.09800
H1891       H  0.76893220  0.30640352  0.15618044     0.07820
Br1892     Br  0.81863339  0.37039214  0.12034126    -0.02790
C1893       C  0.44342990  0.83519094  0.11059932    -0.09420
C1894       C  0.48697347  0.84687558  0.12211859     0.06780
C1895       C  0.51841740  0.87437064  0.10751802    -0.03190
C1896       C  0.50135328  0.89988490  0.08631696    -0.07640
C1897       C  0.45364700  0.89741877  0.07891004     0.05890
C1898       C  0.42839243  0.85743098  0.08771264    -0.02660
Br1899     Br  0.37593095  0.82916354  0.06957378    -0.02360
H1900       H  0.42147014  0.80775899  0.11881861     0.09800
H1901       H  0.52572467  0.92213235  0.07629530     0.07820
Br1902     Br  0.58514496  0.87459920  0.11263847    -0.02790
C1903       C  0.72981678  0.70737246  0.20653688    -0.09420
C1904       C  0.75640515  0.66824198  0.21540319     0.06780
C1905       C  0.80536500  0.67588954  0.21543747    -0.03190
C1906       C  0.82480973  0.71507768  0.20218576    -0.07640
C1907       C  0.79807359  0.75488941  0.19334645     0.05890
C1908       C  0.74887652  0.74948183  0.19680904    -0.02660
Br1909     Br  0.70163352  0.79477662  0.18855285    -0.02360
H1910       H  0.69265135  0.70470193  0.20475216     0.09800
H1911       H  0.86262794  0.71583095  0.20169072     0.07820
Br1912     Br  0.84835817  0.63365774  0.23268043    -0.02790
C1913       C  0.78365953  0.58472297  0.18358316    -0.09420
C1914       C  0.76179550  0.57493897  0.20830992     0.06780
C1915       C  0.75014792  0.52578116  0.21067112    -0.03190
C1916       C  0.75283937  0.49464385  0.18857535    -0.07640
C1917       C  0.76041252  0.50990393  0.16216853     0.05890
C1918       C  0.77411922  0.55786220  0.16060298    -0.02660
Br1919     Br  0.76697743  0.59577760  0.12953453    -0.02360
H1920       H  0.79670306  0.61930586  0.17938583     0.09800
H1921       H  0.74619799  0.45837410  0.19235685     0.07820
Br1922     Br  0.73680133  0.49292487  0.24289124    -0.02790
C1923       C  0.69272669  0.63086847  0.17620172    -0.09420
C1924       C  0.68877846  0.61320055  0.20239932     0.06780
C1925       C  0.64484740  0.59235537  0.20932131    -0.03190
C1926       C  0.60538406  0.60548837  0.19465806    -0.07640
C1927       C  0.61109352  0.63650121  0.17348464     0.05890
C1928       C  0.65410147  0.64038325  0.16101740    -0.02660
Br1929     Br  0.66408823  0.67572539  0.12904407    -0.02360
H1930       H  0.72501772  0.64511691  0.16888128     0.09800
H1931       H  0.57077365  0.59786785  0.20229599     0.07820
Br1932     Br  0.63341164  0.54843079  0.23754311    -0.02790
C1933       C  0.70254932  0.72456480  0.31121458    -0.09420
C1934       C  0.72276238  0.69178164  0.32909830     0.06780
C1935       C  0.76388472  0.70857784  0.34282049    -0.03190
C1936       C  0.78545069  0.75086817  0.33530833    -0.07640
C1937       C  0.76521648  0.78259920  0.31687059     0.05890
C1938       C  0.72412904  0.76628936  0.30347662    -0.02660
Br1939     Br  0.68972287  0.80112204  0.27673184    -0.02360
H1940       H  0.66701780  0.72076102  0.30442693     0.09800
H1941       H  0.81898635  0.75788246  0.34446245     0.07820
Br1942     Br  0.78975537  0.68460258  0.37567285    -0.02790
C1943       C  0.66018670  0.64199119  0.28662604    -0.09420
C1944       C  0.68712507  0.61990506  0.30617334     0.06780
C1945       C  0.71694163  0.58522782  0.29565521    -0.03190
C1946       C  0.73647785  0.59061223  0.27004849    -0.07640
C1947       C  0.71518390  0.61909243  0.25063810     0.05890
C1948       C  0.67509813  0.64546819  0.26010410    -0.02660
Br1949     Br  0.63449083  0.68764811  0.24101458    -0.02360
H1950       H  0.62923901  0.66084446  0.29260810     0.09800
H1951       H  0.76693343  0.57039163  0.26508596     0.07820
Br1952     Br  0.71142145  0.52198578  0.30868688    -0.02790
C1953       C  0.71339032  0.60011907  0.37969258    -0.09420
C1954       C  0.72508995  0.60957601  0.35296704     0.06780
C1955       C  0.76877705  0.58817911  0.34526545    -0.03190
C1956       C  0.78434030  0.54643548  0.35796710    -0.07640
C1957       C  0.76499546  0.53077043  0.38207221     0.05890
C1958       C  0.73957487  0.56728755  0.39490958    -0.02660
Br1959     Br  0.75133969  0.58179266  0.43180518    -0.02360
H1960       H  0.68859019  0.62216938  0.38981200     0.09800
H1961       H  0.81295111  0.52845137  0.34923278     0.07820
Br1962     Br  0.81156992  0.61388132  0.31940295    -0.02790
C1963       C  0.64779135  0.69947853  0.36554235    -0.09420
C1964       C  0.64585224  0.66101510  0.34807649     0.06780
C1965       C  0.59911060  0.64332466  0.34400748    -0.03190
C1966       C  0.55837727  0.66697041  0.35450466    -0.07640
C1967       C  0.55972077  0.71013003  0.36940641     0.05890
C1968       C  0.60840726  0.72294096  0.37607216    -0.02660
Br1969     Br  0.63375680  0.76546957  0.40256499    -0.02360
H1970       H  0.68233651  0.71131303  0.37186094     0.09800
H1971       H  0.52513889  0.64876598  0.35263029     0.07820
Br1972     Br  0.58823129  0.58304741  0.32793188    -0.02790
C1973       C  0.56549632  0.46903983  0.07035971    -0.09420
C1974       C  0.55838125  0.51735458  0.06680360     0.06780
C1975       C  0.51012256  0.53186349  0.07044205    -0.03190
C1976       C  0.47686971  0.50057766  0.08035367    -0.07640
C1977       C  0.48420828  0.45199142  0.08363683     0.05890
C1978       C  0.53026484  0.43669972  0.07652472    -0.02660
Br1979     Br  0.55055603  0.37372908  0.06861807    -0.02360
H1980       H  0.59862451  0.45413995  0.06710016     0.09800
H1981       H  0.44127343  0.51294873  0.07944724     0.07820
Br1982     Br  0.47965206  0.59203921  0.06353866    -0.02790
C1983       C  0.65751420  0.54883517  0.10453923    -0.09420
C1984       C  0.64783361  0.53053178  0.07873109     0.06780
C1985       C  0.67563598  0.48941719  0.07259751    -0.03190
C1986       C  0.70867004  0.47109675  0.09150789    -0.07640
C1987       C  0.71532928  0.49093696  0.11725604     0.05890
C1988       C  0.68222172  0.52489003  0.12400955    -0.02660
Br1989     Br  0.65467135  0.52991370  0.15825479    -0.02360
H1990       H  0.64303166  0.58054254  0.11196122     0.09800
H1991       H  0.73075533  0.44211359  0.08572820     0.07820
Br1992     Br  0.67357636  0.45483178  0.03935426    -0.02790
C1993       C  0.56407227  0.59636082  0.10033534    -0.09420
C1994       C  0.58927105  0.59926451  0.07616702     0.06780
C1995       C  0.60097741  0.64565039  0.06746607    -0.03190
C1996       C  0.58226904  0.68492542  0.08057073    -0.07640
C1997       C  0.55177725  0.67949068  0.10201627     0.05890
C1998       C  0.54165173  0.63429315  0.11118024    -0.02660
Br1999     Br  0.49595866  0.62013894  0.13782869    -0.02360
H2000       H  0.55893093  0.56291249  0.11014770     0.09800
H2001       H  0.59361301  0.71989498  0.07499441     0.07820
Br2002     Br  0.64877074  0.66088805  0.04244476    -0.02790
C2003       C  0.50156971  0.53586111  0.93300338    -0.09420
C2004       C  0.54516465  0.52647976  0.94607895     0.06780
C2005       C  0.54287118  0.49029695  0.96569557    -0.03190
C2006       C  0.49960834  0.47073327  0.97335444    -0.07640
C2007       C  0.45579060  0.48385023  0.96181651     0.05890
C2008       C  0.45814700  0.52134459  0.94346149    -0.02660
Br2009     Br  0.40693272  0.56364762  0.93801866    -0.02360
H2010       H  0.49986232  0.55922160  0.91613365     0.09800
H2011       H  0.50050811  0.44213863  0.98741916     0.07820
Br2012     Br  0.59651756  0.46062300  0.98159451    -0.02790
C2013       C  0.64525725  0.55969219  0.98713102    -0.09420
C2014       C  0.60312445  0.57474872  0.97383493     0.06780
C2015       C  0.56982775  0.59321896  0.99145777    -0.03190
C2016       C  0.56838785  0.57650223  0.01750313    -0.07640
C2017       C  0.60805749  0.55936051  0.03136123     0.05890
C2018       C  0.64931179  0.55724615  0.01543868    -0.02660
Br2019     Br  0.71246999  0.56250482  0.02948040    -0.02360
H2020       H  0.67561309  0.54900007  0.97619637     0.09800
H2021       H  0.53965627  0.58827811  0.02847029     0.07820
Br2022     Br  0.55700050  0.65958562  0.99185801    -0.02790
C2023       C  0.63655105  0.48994275  0.92192975    -0.09420
C2024       C  0.63357693  0.53803336  0.92988343     0.06780
C2025       C  0.67585566  0.56370068  0.92690188    -0.03190
C2026       C  0.71524439  0.54342131  0.91522306    -0.07640
C2027       C  0.71935189  0.49648530  0.90562105     0.05890
C2028       C  0.67969476  0.46847706  0.91351114    -0.02660
Br2029     Br  0.68768214  0.40816748  0.92989312    -0.02360
H2030       H  0.60699278  0.46711740  0.92550437     0.09800
H2031       H  0.74518581  0.56507948  0.91646836     0.07820
Br2032     Br  0.68439314  0.62795906  0.93872530    -0.02790
C2033       C  0.53168506  0.63293421  0.93552849    -0.09420
C2034       C  0.57211919  0.60816552  0.92731221     0.06780
C2035       C  0.58966485  0.62513999  0.90248611    -0.03190
C2036       C  0.57649370  0.66975979  0.89230451    -0.07640
C2037       C  0.53635020  0.69501265  0.90103189     0.05890
C2038       C  0.51162258  0.67120269  0.92161729    -0.02660
Br2039     Br  0.44718468  0.68163097  0.93032584    -0.02360
H2040       H  0.51112437  0.61848689  0.95147934     0.09800
H2041       H  0.59440514  0.68072666  0.87453324     0.07820
Br2042     Br  0.61869103  0.58610886  0.87612821    -0.02790
C2043       C  0.24487089  0.76617347  0.22653863    -0.09420
C2044       C  0.28119980  0.77956060  0.20965576     0.06780
C2045       C  0.28699196  0.75169314  0.18600621    -0.03190
C2046       C  0.25701611  0.71388041  0.18045760    -0.07640
C2047       C  0.22154306  0.70003016  0.19795607     0.05890
C2048       C  0.21246037  0.73180142  0.21934270    -0.02660
Br2049     Br  0.15131593  0.74841850  0.23198422    -0.02360
H2050       H  0.23682288  0.78532754  0.24411296     0.09800
H2051       H  0.26141067  0.69573115  0.16172047     0.07820
Br2052     Br  0.33007381  0.76480602  0.15762713    -0.02790
C2053       C  0.37446114  0.76556589  0.22712266    -0.09420
C2054       C  0.36201548  0.80531352  0.21143801     0.06780
C2055       C  0.39811890  0.82956279  0.19827108    -0.03190
C2056       C  0.44435329  0.82066225  0.20557897    -0.07640
C2057       C  0.45601523  0.78306435  0.22234804     0.05890
C2058       C  0.42053551  0.75443805  0.23243298    -0.02660
Br2059     Br  0.43280796  0.69766207  0.25168265    -0.02360
H2060       H  0.34793402  0.74492510  0.23711825     0.09800
H2061       H  0.47171819  0.84078846  0.19603102     0.07820
Br2062     Br  0.38961758  0.87115967  0.16892973    -0.02790
C2063       C  0.26336909  0.90170184  0.15696493    -0.09420
C2064       C  0.27766960  0.94731043  0.16425612     0.06780
C2065       C  0.29731241  0.95081915  0.19043772    -0.03190
C2066       C  0.30762587  0.91118157  0.20570053    -0.07640
C2067       C  0.29481829  0.86572240  0.19799775     0.05890
C2068       C  0.26614784  0.86355663  0.17427752    -0.02660
Br2069     Br  0.21610787  0.82126236  0.16591959    -0.02360
H2070       H  0.24617341  0.89611628  0.13783922     0.09800
H2071       H  0.32600594  0.91666070  0.22429764     0.07820
Br2072     Br  0.31658585  0.00414329  0.20889645    -0.02790
C2073       C  0.24825035  0.77317025  0.32193807    -0.09420
C2074       C  0.29422230  0.77234538  0.33229150     0.06780
C2075       C  0.31281561  0.72735692  0.33513022    -0.03190
C2076       C  0.29413353  0.68934918  0.32061834    -0.07640
C2077       C  0.24720838  0.68895671  0.31126752     0.05890
C2078       C  0.22601145  0.73423733  0.30995806    -0.02660
Br2079     Br  0.16511223  0.74884351  0.29605953    -0.02360
H2080       H  0.22768528  0.80359611  0.32478392     0.09800
H2081       H  0.31512786  0.65840383  0.31914519     0.07820
Br2082     Br  0.34156809  0.71280750  0.36850758    -0.02790
C2083       C  0.36392755  0.83841365  0.28770506    -0.09420
C2084       C  0.32352107  0.83454634  0.30289373     0.06780
C2085       C  0.28133684  0.85126202  0.28937471    -0.03190
C2086       C  0.27812287  0.85166566  0.26145632    -0.07640
C2087       C  0.31665273  0.83983537  0.24636133     0.05890
C2088       C  0.36048674  0.84763214  0.26051221    -0.02660
Br2089     Br  0.40806647  0.89099397  0.24900549    -0.02360
H2090       H  0.39802126  0.84085614  0.29729666     0.09800
H2091       H  0.24546804  0.86092941  0.25153941     0.07820
Br2092     Br  0.22968523  0.88365288  0.30483617    -0.02790
C2093       C  0.32798249  0.90485014  0.34278192    -0.09420
C2094       C  0.30665649  0.86148202  0.34859363     0.06780
C2095       C  0.26822671  0.86363895  0.36660963    -0.03190
C2096       C  0.25023240  0.90763739  0.37547006    -0.07640
C2097       C  0.27167299  0.95121978  0.36913155     0.05890
C2098       C  0.31164146  0.94792648  0.35212115    -0.02660
Br2099     Br  0.34884157  0.99913734  0.33913645    -0.02360
H2100       H  0.35862700  0.90517896  0.33023875     0.09800
H2101       H  0.22110145  0.90711184  0.38900399     0.07820
Br2102     Br  0.24510571  0.80957716  0.38482486    -0.02790
C2103       C  0.40755721  0.76899911  0.32927807    -0.09420
C2104       C  0.37966627  0.80290619  0.34329937     0.06780
C2105       C  0.39982897  0.81457648  0.36878804    -0.03190
C2106       C  0.44083965  0.79223425  0.37898763    -0.07640
C2107       C  0.46769168  0.75636133  0.36622670     0.05890
C2108       C  0.44905024  0.74617241  0.34008793    -0.02660
Br2109     Br  0.47553687  0.70012787  0.31745274    -0.02360
H2110       H  0.39487562  0.75711778  0.30996513     0.09800
H2111       H  0.45035495  0.80253444  0.39893069     0.07820
Br2112     Br  0.37334010  0.85709820  0.39423543    -0.02790
loop_ 
_geom_bond_atom_site_label_1 
_geom_bond_atom_site_label_2 
_geom_bond_distance 
_geom_bond_site_symmetry_2 
_ccdc_geom_bond_type 
C1         C2074   1.578       .  S
C1         C2084   1.585       .  S
C1         C2094   1.583       .  S
C1         C2104   1.656       .  S
C2         C2044   1.561       .  S
C2         C2054   1.532       .  S
C2         C2067   1.578       .  S
C2         C2087   1.600       .  S
C3         C2004   1.603       .  S
C3         C2014   1.608       .  S
C3         C2024   1.603       .  S
C3         C2034   1.630       .  S
C4         C1974   1.607       .  S
C4         C1984   1.624       .  S
C4         C1994   1.578       .  S
C4         C2017   1.591       .  S
C5         C1934   1.593       .  S
C5         C1944   1.597       .  S
C5         C1954   1.601       .  S
C5         C1964   1.632       .  S
C6         C1904   1.609       .  S
C6         C1914   1.619       .  S
C6         C1924   1.531       .  S
C6         C1947   1.590       .  S
O7           C10   1.274       .  A
O7          Cd12   2.360       .  S
C8           O17   1.278       .  A
C8           O13   1.267       .  A
C8         C2057   1.432       .  S
O9           C15   1.288       .  A
O9          Cd12   2.202       .  S
C10          O18   1.277       .  A
C10        C1997   1.458       .  S
C11          O16   1.282       .  A
C11          O14   1.276       .  A
C11        C1894   1.440       .  S
Cd12         O19   2.235       .  S
Cd12         O18   2.403       .  S
Cd12         O17   2.360       .  S
Cd12         O13   2.278       .  S
Cd12         O16   2.279       .  S
Cd12         O14   2.217       .  S
C15          O19   1.269       .  A
C15        C1927   1.419       .  S
C20        C1877   1.596       .  S
C20        C1884   1.604       .  S
C20        C1917   1.607       .  S
C20        C1987   1.591       .  S
C21        C1847   1.609       .  S
C21        C1854   1.590       .  S
C21        C1864   1.581       .  S
C21        C1897   1.548       .  S
C22        C1814   1.577       .  S
C22        C1824   1.613       .  S
C22        C1834   1.609       .  S
C22        C1857   1.597       .  S
C23        C1794   1.613       .  S
C23        C1804   1.605   1_565  S
C23        C1867   1.593       .  S
C23        C2064   1.581       .  S
C24        C1764   1.607       .  S
C24        C1774   1.630       .  S
C24        C1784   1.639       .  S
C24        C2047   1.562       .  S
C25        C1744   1.540       .  S
C25        C1754   1.569       .  S
C25        C1767   1.577       .  S
C25        C2077   1.587       .  S
C26        C1707   1.602       .  S
C26        C1714   1.611       .  S
C26        C1724   1.597       .  S
C26        C1737   1.551       .  S
C27        C1677   1.615       .  S
C27        C1684   1.569       .  S
C27        C1694   1.621       .  S
C27        C1717   1.611       .  S
C28        C1657   1.614       .  S
C28        C1667   1.605       .  S
C28        C1727   1.588       .  S
C28        C1757   1.575       .  S
O29          C32   1.283       .  A
O29         Cd34   2.249       .  S
C30          O39   1.275       .  A
C30          O35   1.272       .  A
C30        C1734   1.451       .  S
O31          C37   1.265       .  A
O31         Cd34   2.322   1_455  S
C32          O40   1.276       .  A
C32        C1647   1.437       .  S
C33          O38   1.273       .  A
C33          O36   1.289       .  A
C33        C1634   1.447       .  S
Cd34         O41   2.416   1_655  S
Cd34         O40   2.362       .  S
Cd34         O39   2.415   1_655  S
Cd34         O35   2.324   1_655  S
Cd34         O38   2.173       .  S
Cd34         O36   2.415       .  S
C37          O41   1.274       .  A
C37        C1747   1.447       .  S
C42        C1604   1.608       .  S
C42        C1614   1.587       .  S
C42        C1624   1.634       .  S
C42        C1907   1.593       .  S
C43        C1594   1.603       .  S
C43        C1607   1.574       .  S
C43        C1644   1.557       .  S
C43        C1937   1.570       .  S
C44        C1564   1.604       .  S
C44        C1574   1.583       .  S
C44        C1584   1.564       .  S
C44        C1637   1.571       .  S
C45        C1534   1.585       .  S
C45        C1544   1.592       .  S
C45        C1557   1.645       .  S
C45        C1577   1.588       .  S
C46        C1514   1.594   1_565  S
C46        C1524   1.594       .  S
C46        C1587   1.602       .  S
C46        C1597   1.626       .  S
C47        C1474   1.602       .  S
C47        C1484   1.602       .  S
C47        C1494   1.609       .  S
C47        C1504   1.623       .  S
C48        C1444   1.582       .  S
C48        C1457   1.596       .  S
C48        C1467   1.542       .  S
C48        C1487   1.562       .  S
C49        C1414   1.603       .  S
C49        C1424   1.562       .  S
C49        C1434   1.567       .  S
C49        C1674   1.586       .  S
C50        C1394   1.599       .  S
C50        C1404   1.615       .  S
C50        C1417   1.597       .  S
C50        C1704   1.595       .  S
C51        C1374   1.574       .  S
C51        C1384   1.587       .  S
C51        C1427   1.584       .  S
C51        C1454   1.589       .  S
C52        C1347   1.587       .  S
C52        C1354   1.572       .  S
C52        C1367   1.620       .  S
C52        C1567   1.583       .  S
C53        C1324   1.596       .  S
C53        C1337   1.562       .  S
C53        C1344   1.581       .  S
C53        C1537   1.567       .  S
C54        C1284   1.577       .  S
C54        C1294   1.580       .  S
C54        C1304   1.618       .  S
C54        C1314   1.637       .  S
C55        C1257   1.573       .  S
C55        C1264   1.566       .  S
C55        C1277   1.580       .  S
C55        C1297   1.589       .  S
C56        C1237   1.610       .  S
C56        C1244   1.591   1_565  S
C56        C1274   1.582   1_565  S
C56        C1327   1.598       .  S
O57          C60   1.276       .  A
O57         Cd62   2.166       .  S
C58          O67   1.278   1_655  A
C58          O63   1.274       .  A
C58        C1464   1.423       .  S
O59          C65   1.279       .  A
O59         Cd62   2.259       .  S
C60          O68   1.279       .  A
C60        C1334   1.428       .  S
C61          O66   1.277   1_655  A
C61          O64   1.278       .  A
C61        C1437   1.467       .  S
Cd62         O69   2.383       .  S
Cd62         O68   2.359       .  S
Cd62         O67   2.355       .  S
Cd62         O63   2.179   1_455  S
Cd62         O66   2.262       .  S
Cd62         O64   2.412   1_455  S
C65          O69   1.276       .  A
C65        C1267   1.455       .  S
C70        C1204   1.576       .  S
C70        C1214   1.538       .  S
C70        C1227   1.573       .  S
C70        C1817   1.573   1_545  S
C71        C1187   1.637       .  S
C71        C1194   1.664       .  S
C71        C1207   1.576       .  S
C71        C1844   1.594       .  S
C72        C1157   1.608       .  S
C72        C1164   1.612       .  S
C72        C1174   1.632       .  S
C72        C1447   1.569       .  S
C73        C1134   1.572       .  S
C73        C1144   1.549       .  S
C73        C1154   1.574       .  S
C73        C1477   1.597       .  S
C74        C1104   1.582       .  S
C74        C1114   1.573       .  S
C74        C1124   1.603       .  S
C74        C2007   1.609       .  S
C75        C1084   1.614       .  S
C75        C1097   1.603       .  S
C75        C1107   1.645       .  S
C75        C1977   1.582       .  S
O76          C79   1.272       .  A
O76         Cd81   2.278       .  S
C77          O86   1.282       .  A
C77          O82   1.276       .  A
C77        C1147   1.423       .  S
O78          C84   1.282       .  A
O78         Cd81   2.332       .  S
C79          O87   1.278       .  A
C79        C1117   1.428       .  S
C80          O85   1.280       .  A
C80          O83   1.271       .  A
C80        C1074   1.431       .  S
Cd81         O88   2.264       .  S
Cd81         O87   2.341       .  S
Cd81         O86   2.290       .  S
Cd81         O82   2.261       .  S
Cd81         O85   2.219       .  S
Cd81         O83   2.356       .  S
C84          O88   1.270       .  A
C84        C1217   1.448       .  S
C89        C1047   1.624       .  S
C89        C1054   1.601       .  S
C89        C1064   1.591       .  S
C89        C1254   1.585       .  S
C90        C1037   1.563       .  S
C90        C1044   1.622       .  S
C90        C1077   1.546       .  S
C90        C1287   1.622       .  S
C91        C1017   1.580       .  S
C91        C1024   1.579       .  S
C91        C1034   1.592       .  S
C91        C1127   1.623       .  S
C92         C997   1.602       .  S
C92        C1007   1.595       .  S
C92        C1137   1.585   1_565  S
C92        C1224   1.581       .  S
C93         C954   1.542       .  S
C93         C964   1.591       .  S
C93         C974   1.569       .  S
C93         C984   1.555       .  S
C94         C934   1.595       .  S
C94         C944   1.601       .  S
C94         C967   1.596       .  S
C94        C1527   1.634       .  S
C95         C904   1.566       .  S
C95         C917   1.591       .  S
C95         C927   1.639       .  S
C95        C1664   1.602       .  S
C96         C874   1.591       .  S
C96         C884   1.582       .  S
C96         C894   1.575       .  S
C96         C914   1.557       .  S
C97         C844   1.603       .  S
C97         C854   1.607       .  S
C97         C864   1.630       .  S
C97        C1004   1.589       .  S
C98         C814   1.558       .  S
C98         C824   1.568       .  S
C98         C834   1.569       .  S
C98         C857   1.597       .  S
C99         C784   1.571       .  S
C99         C794   1.616       .  S
C99         C807   1.604       .  S
C99        C1027   1.623       .  S
C100        C754   1.582       .  S
C100        C764   1.548       .  S
C100        C774   1.604       .  S
C100        C797   1.575       .  S
C101        C777   1.594       .  S
C101        C887   1.576       .  S
C101       C1057   1.586       .  S
C101       C1687   1.611       .  S
O102        C105   1.283       .  A
O102       Cd107   2.381       .  S
C103        O112   1.265       .  A
C103        O108   1.267       .  A
C103        C827   1.481       .  S
O104        C110   1.277       .  A
O104       Cd107   2.310       .  S
C105        O113   1.262       .  A
C105        C897   1.472       .  S
C106        O111   1.272       .  A
C106        O109   1.275       .  A
C106        C767   1.439       .  S
Cd107       O114   2.283       .  S
Cd107       O113   2.456       .  S
Cd107       O112   2.402       .  S
Cd107       O108   2.363       .  S
Cd107       O111   2.343       .  S
Cd107       O109   2.338       .  S
C110        O114   1.264       .  A
C110        C987   1.431       .  S
C115        C837   1.618       .  S
C115        C977   1.576       .  S
C115       C1167   1.598   1_565  S
C115       C1547   1.589       .  S
C116        C724   1.612       .  S
C116        C734   1.536       .  S
C116        C744   1.588       .  S
C116        C907   1.608       .  S
C117        C714   1.662       .  S
C117        C727   1.605       .  S
C117        C877   1.606       .  S
C117       C1387   1.574       .  S
C118        C687   1.597       .  S
C118        C697   1.535       .  S
C118        C704   1.570       .  S
C118        C937   1.589   1_545  S
C119        C674   1.615       .  S
C119        C684   1.646       .  S
C119        C957   1.577       .  S
C119       C1247   1.623       .  S
C120        C644   1.580       .  S
C120        C654   1.589       .  S
C120        C664   1.616       .  S
C120       C1887   1.577       .  S
C121        C617   1.616       .  S
C121        C624   1.623       .  S
C121        C634   1.527       .  S
C121        C657   1.644       .  S
C122        C574   1.583       .  S
C122        C584   1.609       .  S
C122        C594   1.551       .  S
C122        C607   1.604       .  S
C123        C554   1.569       .  S
C123        C567   1.629       .  S
C123        C587   1.616       .  S
C123       C1807   1.629       .  S
C124        C604   1.590   1_565  S
C124        C707   1.570   1_565  S
C124       C1357   1.583   1_565  S
C124       C2097   1.590       .  S
O125        C128   1.282       .  A
O125       Cd130   2.252       .  S
C126        O135   1.271       .  A
C126        O131   1.280       .  A
C126        C694   1.450       .  S
O127        C133   1.272       .  A
O127       Cd130   2.087       .  S
C128        O136   1.273       .  A
C128        C637   1.434       .  S
C129        O134   1.270       .  A
C129        O132   1.280       .  A
C129        C597   1.426       .  S
Cd130       O137   2.383       .  S
Cd130       O136   2.274       .  S
Cd130       O135   2.383       .  S
Cd130       O131   2.204       .  S
Cd130       O134   2.185       .  S
Cd130       O132   2.310       .  S
C133        O137   1.277       .  A
C133        C737   1.421       .  S
C138        C627   1.621       .  S
C138        C747   1.600       .  S
C138       C1397   1.571       .  S
C138       C1957   1.621       .  S
C139        C534   1.607       .  S
C139        C544   1.646       .  S
C139        C577   1.597       .  S
C139       C1654   1.602       .  S
C140        C514   1.575       .  S
C140        C527   1.564       .  S
C140        C537   1.603       .  S
C140        C557   1.581       .  S
C141        C487   1.586       .  S
C141        C497   1.573       .  S
C141        C504   1.591       .  S
C141       C1014   1.588       .  S
C142        C454   1.588       .  S
C142        C467   1.576       .  S
C142        C474   1.555       .  S
C142        C494   1.550       .  S
O143        C146   1.276       .  A
O143       Cd148   2.334       .  S
C144        O153   1.264       .  A
C144        O149   1.277       .  A
C144        C524   1.438       .  S
O145        C151   1.277   1_655  A
O145       Cd148   2.270       .  S
C146        O154   1.263       .  A
C146        C447   1.446       .  S
C147        O152   1.272       .  A
C147        O150   1.269       .  A
C147        C434   1.437       .  S
Cd148       O155   2.313   1_655  S
Cd148       O154   2.399       .  S
Cd148       O153   2.232   1_655  S
Cd148       O149   2.457   1_655  S
Cd148       O152   2.384       .  S
Cd148       O150   2.317       .  S
C151        O155   1.270       .  A
C151        C477   1.428       .  S
C156        C464   1.591       .  S
C156        C517   1.604       .  S
C156       C1087   1.581       .  S
C156       C1777   1.603       .  S
C157        C404   1.579       .  S
C157        C417   1.596       .  S
C157        C424   1.633       .  S
C157        C994   1.595       .  S
C158        C384   1.584       .  S
C158        C394   1.584       .  S
C158        C414   1.593       .  S
C158        C444   1.573       .  S
C159        C364   1.590       .  S
C159        C374   1.588       .  S
C159        C437   1.575       .  S
C159        C647   1.584       .  S
C160        C354   1.621       .  S
C160        C367   1.627       .  S
C160        C614   1.573       .  S
C160       C1517   1.625       .  S
C161        C377   1.597   1_565  S
C161        C397   1.633       .  S
C161       C1184   1.629   1_565  S
C161       C1617   1.606       .  S
C162        C334   1.587       .  S
C162        C344   1.622       .  S
C162        C757   1.609       .  S
C162       C1234   1.599       .  S
C163        C317   1.574       .  S
C163        C324   1.601       .  S
C163        C337   1.586       .  S
C163        C787   1.579       .  S
C164        C294   1.588       .  S
C164        C304   1.617       .  S
C164        C817   1.581       .  S
C164       C1377   1.550       .  S
C165        C274   1.611       .  S
C165        C284   1.539       .  S
C165        C297   1.584       .  S
C165        C847   1.576       .  S
C166        C254   1.585       .  S
C166        C264   1.645       .  S
C166        C457   1.606       .  S
C166       C1874   1.594       .  S
C167        C234   1.576       .  S
C167        C244   1.540       .  S
C167        C257   1.572   1_556  S
C167        C484   1.588       .  S
C168        C237   1.593       .  S
C168        C277   1.602       .  S
C168       C1497   1.642       .  S
C168       C2027   1.650       .  S
O169        C172   1.269       .  A
O169       Cd174   2.198   1_655  S
C170        O179   1.273       .  A
C170        O175   1.271       .  A
C170        C227   1.432       .  S
O171        C177   1.281   1_455  A
O171       Cd174   2.299       .  S
C172        O180   1.275       .  A
C172        C287   1.432       .  S
C173        O178   1.284       .  A
C173        O176   1.267       .  A
C173        C314   1.439       .  S
Cd174       O181   2.335   1_455  S
Cd174       O180   2.317   1_455  S
Cd174       O179   2.306       .  S
Cd174       O175   2.283       .  S
Cd174       O178   2.334       .  S
Cd174       O176   2.303       .  S
C177        O181   1.269       .  A
C177        C247   1.444       .  S
C182        C207   1.627       .  S
C182        C214   1.634       .  S
C182        C387   1.609       .  S
C182       C1797   1.630       .  S
C183        C194   1.603       .  S
C183        C204   1.570       .  S
C183        C224   1.556       .  S
C183        C407   1.600       .  S
C184        C197   1.603   1_565  S
C184        C327   1.600       .  S
C184       C1307   1.611   1_565  S
C184       C1827   1.615       .  S
C185        C804   1.617       .  S
C185        C867   1.606       .  S
C185       C1837   1.621       .  S
C185       C2037   1.617       .  S
C186        C427   1.588   1_455  S
C186        C507   1.609       .  S
C186       C1317   1.630       .  S
C186       C1507   1.637   1_455  S
C187        C357   1.606   1_455  S
C187        C547   1.622       .  S
C187       C1364   1.600       .  S
C187       C1407   1.606   1_455  S
C188        C307   1.605   1_455  S
C188        C347   1.625       .  S
C188       C1554   1.605   1_455  S
C188       C1697   1.632       .  S
C189        C217   1.659       .  S
C189        C267   1.623   1_455  S
C189       C1627   1.648   1_455  S
C189       C1787   1.634       .  S
C190        C564   1.629       .  S
C190        C667   1.624       .  S
C190       C1094   1.635       .  S
C190       C1197   1.592       .  S
C191        C924   1.607       .  S
C191        C947   1.586       .  S
C191       C1967   1.668       .  S
C191       C2107   1.672       .  S
C192        C677   1.620       .  S
C192        C717   1.632       .  S
C192       C1067   1.596       .  S
C192       C1177   1.628       .  S
C193        C194   1.425   1_545  A
C193        C198   1.416       .  A
C193        H200   1.079       .  S
C194        C195   1.442       .  A
C195        C196   1.411       .  A
C195       Br202   1.915       .  S
C196        C197   1.413   1_565  A
C196        H201   1.078       .  S
C197        C198   1.430       .  A
C198       Br199   1.926       .  S
C203        C204   1.431   1_554  A
C203        C208   1.419       .  A
C203        H210   1.081   1_554  S
C204        C205   1.403   1_556  A
C205        C206   1.394       .  A
C205       Br212   1.929   1_565  S
C206        C207   1.436       .  A
C206        H211   1.065       .  S
C207        C208   1.425       .  A
C208       Br209   1.916       .  S
C213        C214   1.425       .  A
C213        C218   1.448       .  A
C213        H220   1.083       .  S
C214        C215   1.431       .  A
C215        C216   1.430       .  A
C215       Br222   1.911   1_455  S
C216        C217   1.427       .  A
C216        H221   1.070   1_455  S
C217        C218   1.451       .  A
C218       Br219   1.925       .  S
C223        C224   1.424       .  A
C223        C228   1.380       .  A
C223        H230   1.078       .  S
C224        C225   1.440       .  A
C225        C226   1.382       .  A
C225       Br232   1.929       .  S
C226        C227   1.387       .  A
C226        H231   1.085       .  S
C227        C228   1.392       .  A
C228       Br229   1.924       .  S
C233        C234   1.415       .  A
C233        C238   1.393       .  A
C233        H240   1.080       .  S
C234        C235   1.441       .  A
C235        C236   1.417       .  A
C235       Br242   1.923       .  S
C236        C237   1.421       .  A
C236        H241   1.080       .  S
C237        C238   1.407       .  A
C238       Br239   1.931       .  S
C243        C244   1.404       .  A
C243        C248   1.392       .  A
C243        H250   1.075       .  S
C244        C245   1.436       .  A
C245        C246   1.384       .  A
C245       Br252   1.907   1_656  S
C246        C247   1.384       .  A
C246        H251   1.085   1_655  S
C247        C248   1.402       .  A
C248       Br249   1.909       .  S
C253        C254   1.402       .  A
C253        C258   1.392       .  A
C253        H260   1.075       .  S
C254        C255   1.445       .  A
C255        C256   1.404       .  A
C255       Br262   1.922       .  S
C256        C257   1.402       .  A
C256        H261   1.074       .  S
C257        C258   1.432       .  A
C258       Br259   1.927       .  S
C263        C264   1.439       .  A
C263        C268   1.433       .  A
C263        H270   1.078       .  S
C264        C265   1.441       .  A
C265        C266   1.414       .  A
C265       Br272   1.917       .  S
C266        C267   1.420       .  A
C266        H271   1.083       .  S
C267        C268   1.425       .  A
C268       Br269   1.914   1_655  S
C273        C274   1.420       .  A
C273        C278   1.392       .  A
C273        H280   1.077       .  S
C274        C275   1.430       .  A
C275        C276   1.428       .  A
C275       Br282   1.899       .  S
C276        C277   1.428       .  A
C276        H281   1.077       .  S
C277        C278   1.424       .  A
C278       Br279   1.923       .  S
C283        C284   1.416       .  A
C283        C288   1.360       .  A
C283        H290   1.072       .  S
C284        C285   1.424       .  A
C285        C286   1.387       .  A
C285       Br292   1.925       .  S
C286        C287   1.400       .  A
C286        H291   1.084       .  S
C287        C288   1.397       .  A
C288       Br289   1.931       .  S
C293        C294   1.399       .  A
C293        C298   1.410       .  A
C293        H300   1.079       .  S
C294        C295   1.444       .  A
C295        C296   1.399       .  A
C295       Br302   1.914       .  S
C296        C297   1.391       .  A
C296        H301   1.082       .  S
C297        C298   1.459       .  A
C298       Br299   1.940       .  S
C303        C304   1.428       .  A
C303        C308   1.427       .  A
C303        H310   1.080       .  S
C304        C305   1.445       .  A
C305        C306   1.399       .  A
C305       Br312   1.945       .  S
C306        C307   1.407       .  A
C306        H311   1.063       .  S
C307        C308   1.431       .  A
C308       Br309   1.918       .  S
C313        C314   1.387       .  A
C313        C318   1.371       .  A
C313        H320   1.082       .  S
C314        C315   1.401       .  A
C315        C316   1.397       .  A
C315       Br322   1.921       .  S
C316        C317   1.422       .  A
C316        H321   1.063       .  S
C317        C318   1.441       .  A
C318       Br319   1.936       .  S
C323        C324   1.417       .  A
C323        C328   1.390       .  A
C323        H330   1.076       .  S
C324        C325   1.428       .  A
C325        C326   1.426       .  A
C325       Br332   1.920       .  S
C326        C327   1.424       .  A
C326        H331   1.082       .  S
C327        C328   1.408       .  A
C328       Br329   1.896       .  S
C333        C334   1.429       .  A
C333        C338   1.426       .  A
C333        H340   1.080       .  S
C334        C335   1.426       .  A
C335        C336   1.382       .  A
C335       Br342   1.922       .  S
C336        C337   1.413       .  A
C336        H341   1.076       .  S
C337        C338   1.418       .  A
C338       Br339   1.924       .  S
C343        C344   1.423       .  A
C343        C348   1.428       .  A
C343        H350   1.083       .  S
C344        C345   1.415       .  A
C345        C346   1.413       .  A
C345       Br352   1.892       .  S
C346        C347   1.422       .  A
C346        H351   1.075       .  S
C347        C348   1.434       .  A
C348       Br349   1.923       .  S
C353        C354   1.420       .  A
C353        C358   1.432       .  A
C353        H360   1.067       .  S
C354        C355   1.448       .  A
C355        C356   1.400       .  A
C355       Br362   1.925       .  S
C356        C357   1.408       .  A
C356        H361   1.080       .  S
C357        C358   1.427       .  A
C358       Br359   1.924   1_655  S
C363        C364   1.414       .  A
C363        C368   1.434       .  A
C363        H370   1.076       .  S
C364        C365   1.413       .  A
C365        C366   1.383       .  A
C365       Br372   1.937       .  S
C366        C367   1.431       .  A
C366        H371   1.075       .  S
C367        C368   1.438       .  A
C368       Br369   1.911       .  S
C373        C374   1.419       .  A
C373        C378   1.398       .  A
C373        H380   1.078       .  S
C374        C375   1.420       .  A
C375        C376   1.416       .  A
C375       Br382   1.915       .  S
C376        C377   1.425       .  A
C376        H381   1.080       .  S
C377        C378   1.416       .  A
C378       Br379   1.890       .  S
C383        C384   1.409   1_455  A
C383        C388   1.383   1_545  A
C383        H390   1.077   1_455  S
C384        C385   1.444       .  A
C385        C386   1.430   1_645  A
C385       Br392   1.906       .  S
C386        C387   1.417       .  A
C386        H391   1.066       .  S
C387        C388   1.419       .  A
C388       Br389   1.928   1_565  S
C393        C394   1.397   1_565  A
C393        C398   1.407       .  A
C393        H400   1.064       .  S
C394        C395   1.427       .  A
C395        C396   1.407       .  A
C395       Br402   1.931       .  S
C396        C397   1.424   1_545  A
C396        H401   1.058       .  S
C397        C398   1.444       .  A
C398       Br399   1.917       .  S
C403        C404   1.415   1_455  A
C403        C408   1.404       .  A
C403        H410   1.076       .  S
C404        C405   1.413   1_545  A
C405        C406   1.404   1_655  A
C405       Br412   1.925       .  S
C406        C407   1.428       .  A
C406        H411   1.079       .  S
C407        C408   1.424   1_565  A
C408       Br409   1.910       .  S
C413        C414   1.418       .  A
C413        C418   1.419   1_554  A
C413        H420   1.082   1_545  S
C414        C415   1.421       .  A
C415        C416   1.390   1_554  A
C415       Br422   1.905   1_655  S
C416        C417   1.381       .  A
C416        H421   1.083       .  S
C417        C418   1.438       .  A
C418       Br419   1.921   1_545  S
C423        C424   1.424       .  A
C423        C428   1.417       .  A
C423        H430   1.082       .  S
C424        C425   1.452       .  A
C425        C426   1.417       .  A
C425       Br432   1.926       .  S
C426        C427   1.403       .  A
C426        H431   1.078       .  S
C427        C428   1.430       .  A
C428       Br429   1.925       .  S
C433        C434   1.403       .  A
C433        C438   1.402       .  A
C433        H440   1.085       .  S
C434        C435   1.399       .  A
C435        C436   1.376       .  A
C435       Br442   1.927       .  S
C436        C437   1.411       .  A
C436        H441   1.078       .  S
C437        C438   1.422       .  A
C438       Br439   1.922       .  S
C443        C444   1.431       .  A
C443        C448   1.386       .  A
C443        H450   1.073       .  S
C444        C445   1.415       .  A
C445        C446   1.396       .  A
C445       Br452   1.925   1_655  S
C446        C447   1.397       .  A
C446        H451   1.086       .  S
C447        C448   1.382       .  A
C448       Br449   1.909       .  S
C453        C454   1.405       .  A
C453        C458   1.399   1_455  A
C453        H460   1.072       .  S
C454        C455   1.417       .  A
C455        C456   1.406       .  A
C455       Br462   1.938       .  S
C456        C457   1.431   1_455  A
C456        H461   1.060       .  S
C457        C458   1.438       .  A
C458       Br459   1.927       .  S
C463        C464   1.438       .  A
C463        C468   1.408       .  A
C463        H470   1.075       .  S
C464        C465   1.418       .  A
C465        C466   1.379       .  A
C465       Br472   1.898       .  S
C466        C467   1.409       .  A
C466        H471   1.067       .  S
C467        C468   1.421       .  A
C468       Br469   1.917       .  S
C473        C474   1.409       .  A
C473        C478   1.366       .  A
C473        H480   1.059       .  S
C474        C475   1.422       .  A
C475        C476   1.393       .  A
C475       Br482   1.923       .  S
C476        C477   1.399       .  A
C476        H481   1.083       .  S
C477        C478   1.401       .  A
C478       Br479   1.930       .  S
C483        C484   1.399       .  A
C483        C488   1.408       .  A
C483        H490   1.082       .  S
C484        C485   1.435   1_655  A
C485        C486   1.389       .  A
C485       Br492   1.918       .  S
C486        C487   1.401       .  A
C486        H491   1.073       .  S
C487        C488   1.446   1_455  A
C488       Br489   1.910       .  S
C493        C494   1.395       .  A
C493        C498   1.404   1_554  A
C493        H500   1.081       .  S
C494        C495   1.424       .  A
C495        C496   1.388   1_554  A
C495       Br502   1.924       .  S
C496        C497   1.401       .  A
C496        H501   1.067       .  S
C497        C498   1.448       .  A
C498       Br499   1.920       .  S
C503        C504   1.420       .  A
C503        C508   1.425       .  A
C503        H510   1.079       .  S
C504        C505   1.422       .  A
C505        C506   1.405       .  A
C505       Br512   1.923       .  S
C506        C507   1.424       .  A
C506        H511   1.079       .  S
C507        C508   1.434       .  A
C508       Br509   1.912       .  S
C513        C514   1.418       .  A
C513        C518   1.400       .  A
C513        H520   1.079       .  S
C514        C515   1.420       .  A
C515        C516   1.413       .  A
C515       Br522   1.916       .  S
C516        C517   1.401       .  A
C516        H521   1.073       .  S
C517        C518   1.428       .  A
C518       Br519   1.925       .  S
C523        C524   1.375       .  A
C523        C528   1.387       .  A
C523        H530   1.086       .  S
C524        C525   1.397       .  A
C525        C526   1.400       .  A
C525       Br532   1.906       .  S
C526        C527   1.420       .  A
C526        H531   1.079       .  S
C527        C528   1.441       .  A
C528       Br529   1.892       .  S
C533        C534   1.430       .  A
C533        C538   1.403       .  A
C533        H540   1.080       .  S
C534        C535   1.419       .  A
C535        C536   1.429       .  A
C535       Br542   1.907       .  S
C536        C537   1.433       .  A
C536        H541   1.081       .  S
C537        C538   1.413       .  A
C538       Br539   1.927       .  S
C543        C544   1.424       .  A
C543        C548   1.420       .  A
C543        H550   1.074       .  S
C544        C545   1.457       .  A
C545        C546   1.425       .  A
C545       Br552   1.919       .  S
C546        C547   1.426       .  A
C546        H551   1.073       .  S
C547        C548   1.409       .  A
C548       Br549   1.923       .  S
C553        C554   1.410       .  A
C553        C558   1.374       .  A
C553        H560   1.069       .  S
C554        C555   1.416       .  A
C555        C556   1.409       .  A
C555       Br562   1.921       .  S
C556        C557   1.437       .  A
C556        H561   1.078       .  S
C557        C558   1.395       .  A
C558       Br559   1.883       .  S
C563        C564   1.417       .  A
C563        C568   1.409       .  A
C563        H570   1.071       .  S
C564        C565   1.440       .  A
C565        C566   1.442       .  A
C565       Br572   1.916       .  S
C566        C567   1.425       .  A
C566        H571   1.083       .  S
C567        C568   1.437       .  A
C568       Br569   1.932       .  S
C573        C574   1.401       .  A
C573        C578   1.405       .  A
C573        H580   1.083       .  S
C574        C575   1.433       .  A
C575        C576   1.406       .  A
C575       Br582   1.940       .  S
C576        C577   1.418       .  A
C576        H581   1.075       .  S
C577        C578   1.453       .  A
C578       Br579   1.937       .  S
C583        C584   1.432       .  A
C583        C588   1.425       .  A
C583        H590   1.074       .  S
C584        C585   1.429       .  A
C585        C586   1.413       .  A
C585       Br592   1.923       .  S
C586        C587   1.401       .  A
C586        H591   1.034       .  S
C587        C588   1.427       .  A
C588       Br589   1.911       .  S
C593        C594   1.406       .  A
C593        C598   1.357       .  A
C593        H600   1.058       .  S
C594        C595   1.436       .  A
C595        C596   1.391       .  A
C595       Br602   1.919       .  S
C596        C597   1.391       .  A
C596        H601   1.084       .  S
C597        C598   1.389       .  A
C598       Br599   1.928       .  S
C603        C604   1.404       .  A
C603        C608   1.390       .  A
C603        H610   1.066       .  S
C604        C605   1.434       .  A
C605        C606   1.424       .  A
C605       Br612   1.898   1_545  S
C606        C607   1.397       .  A
C606        H611   1.078       .  S
C607        C608   1.427       .  A
C608       Br609   1.921       .  S
C613        C614   1.435       .  A
C613        C618   1.418       .  A
C613        H620   1.084       .  S
C614        C615   1.406       .  A
C615        C616   1.385       .  A
C615       Br622   1.935       .  S
C616        C617   1.431       .  A
C616        H621   1.053       .  S
C617        C618   1.421       .  A
C618       Br619   1.909       .  S
C623        C624   1.420       .  A
C623        C628   1.431       .  A
C623        H630   1.062       .  S
C624        C625   1.435       .  A
C625        C626   1.400       .  A
C625       Br632   1.905       .  S
C626        C627   1.411       .  A
C626        H631   1.070       .  S
C627        C628   1.442       .  A
C628       Br629   1.921       .  S
C633        C634   1.426       .  A
C633        C638   1.371       .  A
C633        H640   1.084       .  S
C634        C635   1.423       .  A
C635        C636   1.390       .  A
C635       Br642   1.926       .  S
C636        C637   1.404       .  A
C636        H641   1.083       .  S
C637        C638   1.392       .  A
C638       Br639   1.922       .  S
C643        C644   1.401       .  A
C643        C648   1.389       .  A
C643        H650   1.067       .  S
C644        C645   1.444       .  A
C645        C646   1.404       .  A
C645       Br652   1.935       .  S
C646        C647   1.411       .  A
C646        H651   1.071       .  S
C647        C648   1.430       .  A
C648       Br649   1.921       .  S
C653        C654   1.373       .  A
C653        C658   1.387       .  A
C653        H660   1.074       .  S
C654        C655   1.448       .  A
C655        C656   1.427       .  A
C655       Br662   1.922       .  S
C656        C657   1.412       .  A
C656        H661   1.064       .  S
C657        C658   1.481       .  A
C658       Br659   1.961       .  S
C663        C664   1.417       .  A
C663        C668   1.411       .  A
C663        H670   1.084       .  S
C664        C665   1.448       .  A
C665        C666   1.423       .  A
C665       Br672   1.921       .  S
C666        C667   1.416       .  A
C666        H671   1.082       .  S
C667        C668   1.432       .  A
C668       Br669   1.934       .  S
C673        C674   1.411       .  A
C673        C678   1.407       .  A
C673        H680   1.077       .  S
C674        C675   1.436       .  A
C675        C676   1.435       .  A
C675       Br682   1.893       .  S
C676        C677   1.417       .  A
C676        H681   1.082       .  S
C677        C678   1.445       .  A
C678       Br679   1.923       .  S
C683        C684   1.429       .  A
C683        C688   1.399       .  A
C683        H690   1.074       .  S
C684        C685   1.433       .  A
C685        C686   1.443       .  A
C685       Br692   1.912       .  S
C686        C687   1.439       .  A
C686        H691   1.080       .  S
C687        C688   1.377       .  A
C688       Br689   1.911   1_545  S
C693        C694   1.387       .  A
C693        C698   1.395       .  A
C693        H700   1.082       .  S
C694        C695   1.388       .  A
C695        C696   1.389       .  A
C695       Br702   1.909       .  S
C696        C697   1.425       .  A
C696        H701   1.080       .  S
C697        C698   1.433       .  A
C698       Br699   1.920       .  S
C703        C704   1.411   1_565  A
C703        C708   1.415       .  A
C703        H710   1.081       .  S
C704        C705   1.425       .  A
C705        C706   1.386       .  A
C705       Br712   1.883       .  S
C706        C707   1.394       .  A
C706        H711   1.074       .  S
C707        C708   1.436   1_545  A
C708       Br709   1.916       .  S
C713        C714   1.437       .  A
C713        C718   1.441       .  A
C713        H720   1.076       .  S
C714        C715   1.450       .  A
C715        C716   1.415       .  A
C715       Br722   1.917       .  S
C716        C717   1.407       .  A
C716        H721   1.075       .  S
C717        C718   1.437       .  A
C718       Br719   1.920       .  S
C723        C724   1.402       .  A
C723        C728   1.428       .  A
C723        H730   1.082       .  S
C724        C725   1.442       .  A
C725        C726   1.402       .  A
C725       Br732   1.927       .  S
C726        C727   1.395       .  A
C726        H731   1.078       .  S
C727        C728   1.454       .  A
C728       Br729   1.920       .  S
C733        C734   1.422       .  A
C733        C738   1.387       .  A
C733        H740   1.075       .  S
C734        C735   1.390       .  A
C735        C736   1.398       .  A
C735       Br742   1.915       .  S
C736        C737   1.400       .  A
C736        H741   1.077       .  S
C737        C738   1.401       .  A
C738       Br739   1.920       .  S
C743        C744   1.415       .  A
C743        C748   1.425       .  A
C743        H750   1.074       .  S
C744        C745   1.394       .  A
C745        C746   1.385       .  A
C745       Br752   1.889       .  S
C746        C747   1.407       .  A
C746        H751   1.083       .  S
C747        C748   1.445       .  A
C748       Br749   1.926       .  S
C753        C754   1.413       .  A
C753        C758   1.414       .  A
C753        H760   1.079       .  S
C754        C755   1.419       .  A
C755        C756   1.389       .  A
C755       Br762   1.930       .  S
C756        C757   1.413       .  A
C756        H761   1.060       .  S
C757        C758   1.438       .  A
C758       Br759   1.922       .  S
C763        C764   1.397       .  A
C763        C768   1.365       .  A
C763        H770   1.071       .  S
C764        C765   1.433       .  A
C765        C766   1.400       .  A
C765       Br772   1.909       .  S
C766        C767   1.392       .  A
C766        H771   1.084       .  S
C767        C768   1.393       .  A
C768       Br769   1.893       .  S
C773        C774   1.431       .  A
C773        C778   1.382       .  A
C773        H780   1.074       .  S
C774        C775   1.428       .  A
C775        C776   1.418       .  A
C775       Br782   1.934       .  S
C776        C777   1.431       .  A
C776        H781   1.079       .  S
C777        C778   1.414       .  A
C778       Br779   1.938       .  S
C783        C784   1.408       .  A
C783        C788   1.403       .  A
C783        H790   1.080       .  S
C784        C785   1.449       .  A
C785        C786   1.397       .  A
C785       Br792   1.929       .  S
C786        C787   1.399       .  A
C786        H791   1.069       .  S
C787        C788   1.429       .  A
C788       Br789   1.935       .  S
C793        C794   1.428       .  A
C793        C798   1.443       .  A
C793        H800   1.081       .  S
C794        C795   1.430       .  A
C795        C796   1.363       .  A
C795       Br802   1.943       .  S
C796        C797   1.410       .  A
C796        H801   1.079       .  S
C797        C798   1.445       .  A
C798       Br799   1.921       .  S
C803        C804   1.418       .  A
C803        C808   1.395       .  A
C803        H810   1.070       .  S
C804        C805   1.439       .  A
C805        C806   1.434       .  A
C805       Br812   1.917       .  S
C806        C807   1.419       .  A
C806        H811   1.075       .  S
C807        C808   1.446       .  A
C808       Br809   1.962       .  S
C813        C814   1.429       .  A
C813        C818   1.401       .  A
C813        H820   1.081       .  S
C814        C815   1.377       .  A
C815        C816   1.383       .  A
C815       Br822   1.901       .  S
C816        C817   1.438       .  A
C816        H821   1.065       .  S
C817        C818   1.418       .  A
C818       Br819   1.916       .  S
C823        C824   1.431       .  A
C823        C828   1.386       .  A
C823        H830   1.081       .  S
C824        C825   1.411       .  A
C825        C826   1.400       .  A
C825       Br832   1.899       .  S
C826        C827   1.408       .  A
C826        H831   1.079       .  S
C827        C828   1.405       .  A
C828       Br829   1.924       .  S
C833        C834   1.401       .  A
C833        C838   1.410       .  A
C833        H840   1.082       .  S
C834        C835   1.433       .  A
C835        C836   1.393       .  A
C835       Br842   1.932       .  S
C836        C837   1.417       .  A
C836        H841   1.072       .  S
C837        C838   1.438       .  A
C838       Br839   1.901   1_565  S
C843        C844   1.429       .  A
C843        C848   1.402       .  A
C843        H850   1.074       .  S
C844        C845   1.438       .  A
C845        C846   1.405       .  A
C845       Br852   1.932       .  S
C846        C847   1.408       .  A
C846        H851   1.077       .  S
C847        C848   1.406       .  A
C848       Br849   1.922       .  S
C853        C854   1.429       .  A
C853        C858   1.410       .  A
C853        H860   1.077       .  S
C854        C855   1.419       .  A
C855        C856   1.415       .  A
C855       Br862   1.924       .  S
C856        C857   1.433       .  A
C856        H861   1.082       .  S
C857        C858   1.406       .  A
C858       Br859   1.918       .  S
C863        C864   1.425       .  A
C863        C868   1.409       .  A
C863        H870   1.078       .  S
C864        C865   1.445       .  A
C865        C866   1.435       .  A
C865       Br872   1.930       .  S
C866        C867   1.421       .  A
C866        H871   1.078       .  S
C867        C868   1.426       .  A
C868       Br869   1.929       .  S
C873        C874   1.417       .  A
C873        C878   1.407       .  A
C873        H880   1.075       .  S
C874        C875   1.407       .  A
C875        C876   1.397       .  A
C875       Br882   1.899       .  S
C876        C877   1.421       .  A
C876        H881   1.054       .  S
C877        C878   1.444       .  A
C878       Br879   1.929       .  S
C883        C884   1.408       .  A
C883        C888   1.380       .  A
C883        H890   1.069       .  S
C884        C885   1.440       .  A
C885        C886   1.413       .  A
C885       Br892   1.928       .  S
C886        C887   1.416       .  A
C886        H891   1.083       .  S
C887        C888   1.412       .  A
C888       Br889   1.917       .  S
C893        C894   1.420       .  A
C893        C898   1.403       .  A
C893        H900   1.080       .  S
C894        C895   1.455       .  A
C895        C896   1.388       .  A
C895       Br902   1.928       .  S
C896        C897   1.374       .  A
C896        H901   1.086       .  S
C897        C898   1.397       .  A
C898       Br899   1.914       .  S
C903        C904   1.390       .  A
C903        C908   1.404       .  A
C903        H910   1.084       .  S
C904        C905   1.409       .  A
C905        C906   1.409       .  A
C905       Br912   1.915       .  S
C906        C907   1.420       .  A
C906        H911   1.077       .  S
C907        C908   1.470       .  A
C908       Br909   1.937       .  S
C913        C914   1.395       .  A
C913        C918   1.400       .  A
C913        H920   1.077       .  S
C914        C915   1.439       .  A
C915        C916   1.436       .  A
C915       Br922   1.924       .  S
C916        C917   1.445       .  A
C916        H921   1.073       .  S
C917        C918   1.378       .  A
C918       Br919   1.940       .  S
C923        C924   1.410       .  A
C923        C928   1.422       .  A
C923        H930   1.083       .  S
C924        C925   1.417       .  A
C925        C926   1.419       .  A
C925       Br932   1.920       .  S
C926        C927   1.424       .  A
C926        H931   1.067       .  S
C927        C928   1.453       .  A
C928       Br929   1.914       .  S
C933        C934   1.395       .  A
C933        C938   1.405   1_565  A
C933        H940   1.077       .  S
C934        C935   1.418       .  A
C935        C936   1.404       .  A
C935       Br942   1.913       .  S
C936        C937   1.411       .  A
C936        H941   1.075       .  S
C937        C938   1.447   1_565  A
C938       Br939   1.923       .  S
C943        C944   1.417       .  A
C943        C948   1.407       .  A
C943        H950   1.083       .  S
C944        C945   1.446       .  A
C945        C946   1.423       .  A
C945       Br952   1.936       .  S
C946        C947   1.416       .  A
C946        H951   1.078       .  S
C947        C948   1.431       .  A
C948       Br949   1.927       .  S
C953        C954   1.414   1_545  A
C953        C958   1.388       .  A
C953        H960   1.079       .  S
C954        C955   1.417       .  A
C955        C956   1.394       .  A
C955       Br962   1.924       .  S
C956        C957   1.419   1_565  A
C956        H961   1.082       .  S
C957        C958   1.412       .  A
C958       Br959   1.928       .  S
C963        C964   1.415       .  A
C963        C968   1.399       .  A
C963        H970   1.078       .  S
C964        C965   1.418       .  A
C965        C966   1.417       .  A
C965       Br972   1.926   1_565  S
C966        C967   1.430       .  A
C966        H971   1.072       .  S
C967        C968   1.429       .  A
C968       Br969   1.924       .  S
C973        C974   1.417       .  A
C973        C978   1.416       .  A
C973        H980   1.078       .  S
C974        C975   1.422       .  A
C975        C976   1.359       .  A
C975       Br982   1.923       .  S
C976        C977   1.386       .  A
C976        H981   1.043       .  S
C977        C978   1.446       .  A
C978       Br979   1.935   1_565  S
C983        C984   1.421       .  A
C983        C988   1.375       .  A
C983        H990   1.084       .  S
C984        C985   1.449       .  A
C985        C986   1.377       .  A
C985       Br992   1.949       .  S
C986        C987   1.383       .  A
C986        H991   1.086       .  S
C987        C988   1.396       .  A
C988       Br989   1.924       .  S
C993        C994   1.421   1_565  A
C993        C998   1.424       .  A
C993       H1000   1.081       .  S
C994        C995   1.413       .  A
C995        C996   1.401       .  A
C995      Br1002   1.930       .  S
C996        C997   1.433   1_545  A
C996       H1001   1.076       .  S
C997        C998   1.429       .  A
C998       Br999   1.920       .  S
C1003      C1004   1.422       .  A
C1003      C1008   1.433       .  A
C1003      H1010   1.076       .  S
C1004      C1005   1.414       .  A
C1005      C1006   1.385       .  A
C1005     Br1012   1.921       .  S
C1006      C1007   1.423       .  A
C1006      H1011   1.071       .  S
C1007      C1008   1.426       .  A
C1008     Br1009   1.917       .  S
C1013      C1014   1.422       .  A
C1013      C1018   1.419       .  A
C1013      H1020   1.077       .  S
C1014      C1015   1.427       .  A
C1015      C1016   1.400       .  A
C1015     Br1022   1.920       .  S
C1016      C1017   1.417       .  A
C1016      H1021   1.083       .  S
C1017      C1018   1.429       .  A
C1018     Br1019   1.919       .  S
C1023      C1024   1.410       .  A
C1023      C1028   1.422       .  A
C1023      H1030   1.082       .  S
C1024      C1025   1.409       .  A
C1025      C1026   1.392       .  A
C1025     Br1032   1.930       .  S
C1026      C1027   1.418       .  A
C1026      H1031   1.055       .  S
C1027      C1028   1.444       .  A
C1028     Br1029   1.895       .  S
C1033      C1034   1.406       .  A
C1033      C1038   1.382       .  A
C1033      H1040   1.062       .  S
C1034      C1035   1.449       .  A
C1035      C1036   1.409       .  A
C1035     Br1042   1.926       .  S
C1036      C1037   1.398       .  A
C1036      H1041   1.082       .  S
C1037      C1038   1.418       .  A
C1038     Br1039   1.928       .  S
C1043      C1044   1.414       .  A
C1043      C1048   1.413       .  A
C1043      H1050   1.058       .  S
C1044      C1045   1.437       .  A
C1045      C1046   1.419       .  A
C1045     Br1052   1.927       .  S
C1046      C1047   1.419       .  A
C1046      H1051   1.076       .  S
C1047      C1048   1.434       .  A
C1048     Br1049   1.928       .  S
C1053      C1054   1.426       .  A
C1053      C1058   1.419       .  A
C1053      H1060   1.083       .  S
C1054      C1055   1.430       .  A
C1055      C1056   1.393       .  A
C1055     Br1062   1.937       .  S
C1056      C1057   1.415       .  A
C1056      H1061   1.077       .  S
C1057      C1058   1.427       .  A
C1058     Br1059   1.926       .  S
C1063      C1064   1.420       .  A
C1063      C1068   1.431       .  A
C1063      H1070   1.081       .  S
C1064      C1065   1.428       .  A
C1065      C1066   1.397       .  A
C1065     Br1072   1.921       .  S
C1066      C1067   1.413       .  A
C1066      H1071   1.077       .  S
C1067      C1068   1.437       .  A
C1068     Br1069   1.922       .  S
C1073      C1074   1.384       .  A
C1073      C1078   1.387       .  A
C1073      H1080   1.083       .  S
C1074      C1075   1.392       .  A
C1075      C1076   1.388       .  A
C1075     Br1082   1.917       .  S
C1076      C1077   1.422       .  A
C1076      H1081   1.075       .  S
C1077      C1078   1.436       .  A
C1078     Br1079   1.920       .  S
C1083      C1084   1.403       .  A
C1083      C1088   1.404       .  A
C1083      H1090   1.076       .  S
C1084      C1085   1.451       .  A
C1085      C1086   1.413       .  A
C1085     Br1092   1.923       .  S
C1086      C1087   1.397       .  A
C1086      H1091   1.080       .  S
C1087      C1088   1.442       .  A
C1088     Br1089   1.931       .  S
C1093      C1094   1.417       .  A
C1093      C1098   1.407       .  A
C1093      H1100   1.063       .  S
C1094      C1095   1.452       .  A
C1095      C1096   1.435       .  A
C1095     Br1102   1.919       .  S
C1096      C1097   1.414       .  A
C1096      H1101   1.076       .  S
C1097      C1098   1.426       .  A
C1098     Br1099   1.909       .  S
C1103      C1104   1.431   1_554  A
C1103      C1108   1.452       .  A
C1103      H1110   1.083   1_554  S
C1104      C1105   1.378   1_556  A
C1105      C1106   1.369       .  A
C1105     Br1112   1.922       .  S
C1106      C1107   1.431       .  A
C1106      H1111   1.069       .  S
C1107      C1108   1.458       .  A
C1108     Br1109   1.916       .  S
C1113      C1114   1.422       .  A
C1113      C1118   1.363       .  A
C1113      H1120   1.075       .  S
C1114      C1115   1.434       .  A
C1115      C1116   1.395       .  A
C1115     Br1122   1.923   1_556  S
C1116      C1117   1.393       .  A
C1116      H1121   1.084       .  S
C1117      C1118   1.395       .  A
C1118     Br1119   1.926       .  S
C1123      C1124   1.418       .  A
C1123      C1128   1.405       .  A
C1123      H1130   1.065       .  S
C1124      C1125   1.433       .  A
C1125      C1126   1.421       .  A
C1125     Br1132   1.922       .  S
C1126      C1127   1.425       .  A
C1126      H1131   1.076       .  S
C1127      C1128   1.428       .  A
C1128     Br1129   1.930       .  S
C1133      C1134   1.407       .  A
C1133      C1138   1.412       .  A
C1133      H1140   1.081       .  S
C1134      C1135   1.424       .  A
C1135      C1136   1.395       .  A
C1135     Br1142   1.928       .  S
C1136      C1137   1.411       .  A
C1136      H1141   1.081       .  S
C1137      C1138   1.433       .  A
C1138     Br1139   1.917   1_545  S
C1143      C1144   1.428       .  A
C1143      C1148   1.385       .  A
C1143      H1150   1.062       .  S
C1144      C1145   1.428       .  A
C1145      C1146   1.367       .  A
C1145     Br1152   1.936       .  S
C1146      C1147   1.392       .  A
C1146      H1151   1.080       .  S
C1147      C1148   1.384       .  A
C1148     Br1149   1.915       .  S
C1153      C1154   1.418       .  A
C1153      C1158   1.432       .  A
C1153      H1160   1.084       .  S
C1154      C1155   1.396       .  A
C1155      C1156   1.381       .  A
C1155     Br1162   1.931       .  S
C1156      C1157   1.430       .  A
C1156      H1161   1.073       .  S
C1157      C1158   1.434       .  A
C1158     Br1159   1.919       .  S
C1163      C1164   1.407       .  A
C1163      C1168   1.399       .  A
C1163      H1170   1.073       .  S
C1164      C1165   1.456       .  A
C1165      C1166   1.421       .  A
C1165     Br1172   1.918       .  S
C1166      C1167   1.407       .  A
C1166      H1171   1.080       .  S
C1167      C1168   1.440       .  A
C1168     Br1169   1.923       .  S
C1173      C1174   1.418       .  A
C1173      C1178   1.435       .  A
C1173      H1180   1.079       .  S
C1174      C1175   1.438       .  A
C1175      C1176   1.414       .  A
C1175     Br1182   1.919       .  S
C1176      C1177   1.416       .  A
C1176      H1181   1.081       .  S
C1177      C1178   1.442       .  A
C1178     Br1179   1.906       .  S
C1183      C1184   1.420       .  A
C1183      C1188   1.416       .  A
C1183      H1190   1.082       .  S
C1184      C1185   1.419   1_545  A
C1185      C1186   1.442   1_565  A
C1185     Br1192   1.918       .  S
C1186      C1187   1.447       .  A
C1186      H1191   1.074   1_545  S
C1187      C1188   1.430       .  A
C1188     Br1189   1.896       .  S
C1193      C1194   1.432       .  A
C1193      C1198   1.419       .  A
C1193      H1200   1.072       .  S
C1194      C1195   1.451       .  A
C1195      C1196   1.434       .  A
C1195     Br1202   1.927       .  S
C1196      C1197   1.417       .  A
C1196      H1201   1.083       .  S
C1197      C1198   1.411       .  A
C1198     Br1199   1.931       .  S
C1203      C1204   1.408   1_554  A
C1203      C1208   1.412       .  A
C1203      H1210   1.082   1_544  S
C1204      C1205   1.435       .  A
C1205      C1206   1.392   1_556  A
C1205     Br1212   1.936       .  S
C1206      C1207   1.409       .  A
C1206      H1211   1.080       .  S
C1207      C1208   1.435       .  A
C1208     Br1209   1.918   1_545  S
C1213      C1214   1.407       .  A
C1213      C1218   1.378       .  A
C1213      H1220   1.074       .  S
C1214      C1215   1.431       .  A
C1215      C1216   1.384       .  A
C1215     Br1222   1.929   1_545  S
C1216      C1217   1.392       .  A
C1216      H1221   1.084       .  S
C1217      C1218   1.405       .  A
C1218     Br1219   1.927       .  S
C1223      C1224   1.416   1_545  A
C1223      C1228   1.401       .  A
C1223      H1230   1.073       .  S
C1224      C1225   1.423       .  A
C1225      C1226   1.383       .  A
C1225     Br1232   1.929       .  S
C1226      C1227   1.410   1_565  A
C1226      H1231   1.067       .  S
C1227      C1228   1.431       .  A
C1228     Br1229   1.927       .  S
C1233      C1234   1.408       .  A
C1233      C1238   1.387       .  A
C1233      H1240   1.074       .  S
C1234      C1235   1.430       .  A
C1235      C1236   1.436       .  A
C1235     Br1242   1.917       .  S
C1236      C1237   1.431       .  A
C1236      H1241   1.082       .  S
C1237      C1238   1.437       .  A
C1238     Br1239   1.925       .  S
C1243      C1244   1.421       .  A
C1243      C1248   1.399       .  A
C1243      H1250   1.077       .  S
C1244      C1245   1.412   1_545  A
C1245      C1246   1.420   1_565  A
C1245     Br1252   1.912       .  S
C1246      C1247   1.442       .  A
C1246      H1251   1.075   1_545  S
C1247      C1248   1.426       .  A
C1248     Br1249   1.916       .  S
C1253      C1254   1.405       .  A
C1253      C1258   1.387       .  A
C1253      H1260   1.070       .  S
C1254      C1255   1.429       .  A
C1255      C1256   1.404       .  A
C1255     Br1262   1.920       .  S
C1256      C1257   1.408       .  A
C1256      H1261   1.078       .  S
C1257      C1258   1.422       .  A
C1258     Br1259   1.923       .  S
C1263      C1264   1.428       .  A
C1263      C1268   1.389       .  A
C1263      H1270   1.079       .  S
C1264      C1265   1.440       .  A
C1265      C1266   1.395       .  A
C1265     Br1272   1.917       .  S
C1266      C1267   1.389       .  A
C1266      H1271   1.085       .  S
C1267      C1268   1.390       .  A
C1268     Br1269   1.916       .  S
C1273      C1274   1.401       .  A
C1273      C1278   1.394       .  A
C1273      H1280   1.079       .  S
C1274      C1275   1.437       .  A
C1275      C1276   1.420       .  A
C1275     Br1282   1.918       .  S
C1276      C1277   1.405       .  A
C1276      H1281   1.080       .  S
C1277      C1278   1.431       .  A
C1278     Br1279   1.905       .  S
C1283      C1284   1.420       .  A
C1283      C1288   1.408       .  A
C1283      H1290   1.075       .  S
C1284      C1285   1.412       .  A
C1285      C1286   1.411       .  A
C1285     Br1292   1.921       .  S
C1286      C1287   1.437       .  A
C1286      H1291   1.070       .  S
C1287      C1288   1.427       .  A
C1288     Br1289   1.925       .  S
C1293      C1294   1.411       .  A
C1293      C1298   1.424       .  A
C1293      H1300   1.083       .  S
C1294      C1295   1.422       .  A
C1295      C1296   1.385       .  A
C1295     Br1302   1.919       .  S
C1296      C1297   1.411       .  A
C1296      H1301   1.076       .  S
C1297      C1298   1.440       .  A
C1298     Br1299   1.903       .  S
C1303      C1304   1.422       .  A
C1303      C1308   1.427       .  A
C1303      H1310   1.083       .  S
C1304      C1305   1.439       .  A
C1305      C1306   1.409       .  A
C1305     Br1312   1.934       .  S
C1306      C1307   1.414       .  A
C1306      H1311   1.066       .  S
C1307      C1308   1.436       .  A
C1308     Br1309   1.920       .  S
C1313      C1314   1.411       .  A
C1313      C1318   1.427       .  A
C1313      H1320   1.070       .  S
C1314      C1315   1.444       .  A
C1315      C1316   1.428       .  A
C1315     Br1322   1.902       .  S
C1316      C1317   1.411       .  A
C1316      H1321   1.079       .  S
C1317      C1318   1.457       .  A
C1318     Br1319   1.929       .  S
C1323      C1324   1.418   1_565  A
C1323      C1328   1.400       .  A
C1323      H1330   1.076       .  S
C1324      C1325   1.424       .  A
C1325      C1326   1.413       .  A
C1325     Br1332   1.920       .  S
C1326      C1327   1.430   1_545  A
C1326      H1331   1.079   1_545  S
C1327      C1328   1.412       .  A
C1328     Br1329   1.904   1_565  S
C1333      C1334   1.391       .  A
C1333      C1338   1.371       .  A
C1333      H1340   1.086       .  S
C1334      C1335   1.398       .  A
C1335      C1336   1.389       .  A
C1335     Br1342   1.917       .  S
C1336      C1337   1.407       .  A
C1336      H1341   1.074       .  S
C1337      C1338   1.414       .  A
C1338     Br1339   1.925       .  S
C1343      C1344   1.399       .  A
C1343      C1348   1.394       .  A
C1343      H1350   1.075   1_545  S
C1344      C1345   1.425       .  A
C1345      C1346   1.405       .  A
C1345     Br1352   1.933       .  S
C1346      C1347   1.410       .  A
C1346      H1351   1.081       .  S
C1347      C1348   1.438       .  A
C1348     Br1349   1.921   1_545  S
C1353      C1354   1.399       .  A
C1353      C1358   1.385       .  A
C1353      H1360   1.081       .  S
C1354      C1355   1.422       .  A
C1355      C1356   1.422   1_545  A
C1355     Br1362   1.920   1_545  S
C1356      C1357   1.419   1_565  A
C1356      H1361   1.077       .  S
C1357      C1358   1.449       .  A
C1358     Br1359   1.945       .  S
C1363      C1364   1.420       .  A
C1363      C1368   1.425       .  A
C1363      H1370   1.081   1_455  S
C1364      C1365   1.421       .  A
C1365      C1366   1.417       .  A
C1365     Br1372   1.912       .  S
C1366      C1367   1.423       .  A
C1366      H1371   1.077       .  S
C1367      C1368   1.435       .  A
C1368     Br1369   1.924   1_455  S
C1373      C1374   1.416       .  A
C1373      C1378   1.379       .  A
C1373      H1380   1.076       .  S
C1374      C1375   1.422       .  A
C1375      C1376   1.421       .  A
C1375     Br1382   1.909       .  S
C1376      C1377   1.421       .  A
C1376      H1381   1.079       .  S
C1377      C1378   1.420       .  A
C1378     Br1379   1.936       .  S
C1383      C1384   1.415       .  A
C1383      C1388   1.388       .  A
C1383      H1390   1.073       .  S
C1384      C1385   1.430       .  A
C1385      C1386   1.421       .  A
C1385     Br1392   1.920       .  S
C1386      C1387   1.407       .  A
C1386      H1391   1.079       .  S
C1387      C1388   1.417       .  A
C1388     Br1389   1.925       .  S
C1393      C1394   1.405       .  A
C1393      C1398   1.398       .  A
C1393      H1400   1.070       .  S
C1394      C1395   1.428       .  A
C1395      C1396   1.419       .  A
C1395     Br1402   1.925       .  S
C1396      C1397   1.415       .  A
C1396      H1401   1.079       .  S
C1397      C1398   1.431       .  A
C1398     Br1399   1.920       .  S
C1403      C1404   1.419       .  A
C1403      C1408   1.398       .  A
C1403      H1410   1.077       .  S
C1404      C1405   1.444       .  A
C1405      C1406   1.437       .  A
C1405     Br1412   1.928   1_655  S
C1406      C1407   1.421       .  A
C1406      H1411   1.080   1_655  S
C1407      C1408   1.427       .  A
C1408     Br1409   1.930       .  S
C1413      C1414   1.432       .  A
C1413      C1418   1.409       .  A
C1413      H1420   1.066       .  S
C1414      C1415   1.413       .  A
C1415      C1416   1.407       .  A
C1415     Br1422   1.925       .  S
C1416      C1417   1.432       .  A
C1416      H1421   1.069       .  S
C1417      C1418   1.416       .  A
C1418     Br1419   1.929       .  S
C1423      C1424   1.401       .  A
C1423      C1428   1.399       .  A
C1423      H1430   1.076       .  S
C1424      C1425   1.423       .  A
C1425      C1426   1.400       .  A
C1425     Br1432   1.916       .  S
C1426      C1427   1.412       .  A
C1426      H1431   1.079       .  S
C1427      C1428   1.433       .  A
C1428     Br1429   1.915       .  S
C1433      C1434   1.417       .  A
C1433      C1438   1.398       .  A
C1433      H1440   1.083       .  S
C1434      C1435   1.422       .  A
C1435      C1436   1.390   1_655  A
C1435     Br1442   1.930   1_655  S
C1436      C1437   1.394   1_455  A
C1436      H1441   1.084       .  S
C1437      C1438   1.392       .  A
C1438     Br1439   1.917       .  S
C1443      C1444   1.425       .  A
C1443      C1448   1.404       .  A
C1443      H1450   1.075       .  S
C1444      C1445   1.419       .  A
C1445      C1446   1.390       .  A
C1445     Br1452   1.932       .  S
C1446      C1447   1.421       .  A
C1446      H1451   1.080       .  S
C1447      C1448   1.419       .  A
C1448     Br1449   1.925       .  S
C1453      C1454   1.425       .  A
C1453      C1458   1.407       .  A
C1453      H1460   1.075       .  S
C1454      C1455   1.412       .  A
C1455      C1456   1.396       .  A
C1455     Br1462   1.921       .  S
C1456      C1457   1.429       .  A
C1456      H1461   1.075       .  S
C1457      C1458   1.424       .  A
C1458     Br1459   1.905       .  S
C1463      C1464   1.390       .  A
C1463      C1468   1.395       .  A
C1463      H1470   1.084       .  S
C1464      C1465   1.389       .  A
C1465      C1466   1.352       .  A
C1465     Br1472   1.907       .  S
C1466      C1467   1.398       .  A
C1466      H1471   1.066       .  S
C1467      C1468   1.438       .  A
C1468     Br1469   1.923       .  S
C1473      C1474   1.410       .  A
C1473      C1478   1.394       .  A
C1473      H1480   1.075       .  S
C1474      C1475   1.448       .  A
C1475      C1476   1.414       .  A
C1475     Br1482   1.908       .  S
C1476      C1477   1.408       .  A
C1476      H1481   1.075       .  S
C1477      C1478   1.428       .  A
C1478     Br1479   1.913       .  S
C1483      C1484   1.407       .  A
C1483      C1488   1.402       .  A
C1483      H1490   1.083       .  S
C1484      C1485   1.459       .  A
C1485      C1486   1.407       .  A
C1485     Br1492   1.925       .  S
C1486      C1487   1.388       .  A
C1486      H1491   1.080       .  S
C1487      C1488   1.434       .  A
C1488     Br1489   1.923       .  S
C1493      C1494   1.404       .  A
C1493      C1498   1.414       .  A
C1493      H1500   1.084       .  S
C1494      C1495   1.437       .  A
C1495      C1496   1.439       .  A
C1495     Br1502   1.917       .  S
C1496      C1497   1.419       .  A
C1496      H1501   1.059       .  S
C1497      C1498   1.453       .  A
C1498     Br1499   1.923       .  S
C1503      C1504   1.403       .  A
C1503      C1508   1.411       .  A
C1503      H1510   1.083       .  S
C1504      C1505   1.447       .  A
C1505      C1506   1.441       .  A
C1505     Br1512   1.914       .  S
C1506      C1507   1.421       .  A
C1506      H1511   1.076       .  S
C1507      C1508   1.447       .  A
C1508     Br1509   1.896       .  S
C1513      C1514   1.406       .  A
C1513      C1518   1.421       .  A
C1513      H1520   1.084       .  S
C1514      C1515   1.417       .  A
C1515      C1516   1.414       .  A
C1515     Br1522   1.912       .  S
C1516      C1517   1.422       .  A
C1516      H1521   1.072       .  S
C1517      C1518   1.458       .  A
C1518     Br1519   1.908       .  S
C1523      C1524   1.420       .  A
C1523      C1528   1.408       .  A
C1523      H1530   1.084       .  S
C1524      C1525   1.424       .  A
C1525      C1526   1.422       .  A
C1525     Br1532   1.920   1_565  S
C1526      C1527   1.432       .  A
C1526      H1531   1.074       .  S
C1527      C1528   1.423       .  A
C1528     Br1529   1.898       .  S
C1533      C1534   1.418       .  A
C1533      C1538   1.406   1_665  A
C1533      H1540   1.077   1_565  S
C1534      C1535   1.436   1_655  A
C1535      C1536   1.386       .  A
C1535     Br1542   1.923       .  S
C1536      C1537   1.401   1_565  A
C1536      H1541   1.077       .  S
C1537      C1538   1.423       .  A
C1538     Br1539   1.922   1_455  S
C1543      C1544   1.407       .  A
C1543      C1548   1.384       .  A
C1543      H1550   1.081       .  S
C1544      C1545   1.422       .  A
C1545      C1546   1.431       .  A
C1545     Br1552   1.914       .  S
C1546      C1547   1.429       .  A
C1546      H1551   1.075   1_565  S
C1547      C1548   1.435       .  A
C1548     Br1549   1.938       .  S
C1553      C1554   1.419       .  A
C1553      C1558   1.430       .  A
C1553      H1560   1.079       .  S
C1554      C1555   1.413   1_655  A
C1555      C1556   1.412       .  A
C1555     Br1562   1.922       .  S
C1556      C1557   1.428   1_455  A
C1556      H1561   1.071       .  S
C1557      C1558   1.449       .  A
C1558     Br1559   1.900       .  S
C1563      C1564   1.394   1_455  A
C1563      C1568   1.399       .  A
C1563      H1570   1.070       .  S
C1564      C1565   1.454       .  A
C1565      C1566   1.414   1_565  A
C1565     Br1572   1.913   1_565  S
C1566      C1567   1.402   1_655  A
C1566      H1571   1.080       .  S
C1567      C1568   1.410   1_545  A
C1568     Br1569   1.923       .  S
C1573      C1574   1.440       .  A
C1573      C1578   1.405       .  A
C1573      H1580   1.076       .  S
C1574      C1575   1.405       .  A
C1575      C1576   1.397       .  A
C1575     Br1582   1.917   1_565  S
C1576      C1577   1.434       .  A
C1576      H1581   1.077       .  S
C1577      C1578   1.405       .  A
C1578     Br1579   1.913       .  S
C1583      C1584   1.403       .  A
C1583      C1588   1.413       .  A
C1583      H1590   1.080       .  S
C1584      C1585   1.425       .  A
C1585      C1586   1.389       .  A
C1585     Br1592   1.936       .  S
C1586      C1587   1.406       .  A
C1586      H1591   1.061       .  S
C1587      C1588   1.453       .  A
C1588     Br1589   1.935       .  S
C1593      C1594   1.415       .  A
C1593      C1598   1.414       .  A
C1593      H1600   1.082       .  S
C1594      C1595   1.440       .  A
C1595      C1596   1.412       .  A
C1595     Br1602   1.914       .  S
C1596      C1597   1.417       .  A
C1596      H1601   1.076       .  S
C1597      C1598   1.438       .  A
C1598     Br1599   1.908       .  S
C1603      C1604   1.405       .  A
C1603      C1608   1.397       .  A
C1603      H1610   1.075       .  S
C1604      C1605   1.467       .  A
C1605      C1606   1.409       .  A
C1605     Br1612   1.933       .  S
C1606      C1607   1.389       .  A
C1606      H1611   1.082       .  S
C1607      C1608   1.435       .  A
C1608     Br1609   1.924       .  S
C1613      C1614   1.430       .  A
C1613      C1618   1.439       .  A
C1613      H1620   1.077       .  S
C1614      C1615   1.417       .  A
C1615      C1616   1.392       .  A
C1615     Br1622   1.935       .  S
C1616      C1617   1.428       .  A
C1616      H1621   1.068       .  S
C1617      C1618   1.430       .  A
C1618     Br1619   1.919       .  S
C1623      C1624   1.428       .  A
C1623      C1628   1.446       .  A
C1623      H1630   1.078       .  S
C1624      C1625   1.431       .  A
C1625      C1626   1.414       .  A
C1625     Br1632   1.918       .  S
C1626      C1627   1.424       .  A
C1626      H1631   1.083       .  S
C1627      C1628   1.445       .  A
C1628     Br1629   1.913   1_655  S
C1633      C1634   1.390       .  A
C1633      C1638   1.376       .  A
C1633      H1640   1.086   1_655  S
C1634      C1635   1.388       .  A
C1635      C1636   1.390       .  A
C1635     Br1642   1.909       .  S
C1636      C1637   1.435       .  A
C1636      H1641   1.082       .  S
C1637      C1638   1.428       .  A
C1638     Br1639   1.908   1_655  S
C1643      C1644   1.432       .  A
C1643      C1648   1.382       .  A
C1643      H1650   1.081       .  S
C1644      C1645   1.417       .  A
C1645      C1646   1.386       .  A
C1645     Br1652   1.925       .  S
C1646      C1647   1.399       .  A
C1646      H1651   1.079       .  S
C1647      C1648   1.383       .  A
C1648     Br1649   1.916       .  S
C1653      C1654   1.432       .  A
C1653      C1658   1.442       .  A
C1653      H1660   1.083       .  S
C1654      C1655   1.422       .  A
C1655      C1656   1.385       .  A
C1655     Br1662   1.948       .  S
C1656      C1657   1.425       .  A
C1656      H1661   1.070       .  S
C1657      C1658   1.427       .  A
C1658     Br1659   1.912       .  S
C1663      C1664   1.385       .  A
C1663      C1668   1.389       .  A
C1663      H1670   1.081       .  S
C1664      C1665   1.452       .  A
C1665      C1666   1.436       .  A
C1665     Br1672   1.919       .  S
C1666      C1667   1.410       .  A
C1666      H1671   1.082       .  S
C1667      C1668   1.454       .  A
C1668     Br1669   1.940       .  S
C1673      C1674   1.430       .  A
C1673      C1678   1.425   1_655  A
C1673      H1680   1.078       .  S
C1674      C1675   1.410   1_655  A
C1675      C1676   1.390       .  A
C1675     Br1682   1.924       .  S
C1676      C1677   1.417       .  A
C1676      H1681   1.060       .  S
C1677      C1678   1.426       .  A
C1678     Br1679   1.918       .  S
C1683      C1684   1.422       .  A
C1683      C1688   1.434       .  A
C1683      H1690   1.080       .  S
C1684      C1685   1.415       .  A
C1685      C1686   1.377       .  A
C1685     Br1692   1.925       .  S
C1686      C1687   1.404       .  A
C1686      H1691   1.060       .  S
C1687      C1688   1.434       .  A
C1688     Br1689   1.909       .  S
C1693      C1694   1.417       .  A
C1693      C1698   1.430       .  A
C1693      H1700   1.084       .  S
C1694      C1695   1.446       .  A
C1695      C1696   1.417       .  A
C1695     Br1702   1.935       .  S
C1696      C1697   1.413       .  A
C1696      H1701   1.068       .  S
C1697      C1698   1.445       .  A
C1698     Br1699   1.916   1_455  S
C1703      C1704   1.406       .  A
C1703      C1708   1.387   1_655  A
C1703      H1710   1.073       .  S
C1704      C1705   1.431   1_655  A
C1705      C1706   1.413       .  A
C1705     Br1712   1.916       .  S
C1706      C1707   1.415       .  A
C1706      H1711   1.070       .  S
C1707      C1708   1.437       .  A
C1708     Br1709   1.921       .  S
C1713      C1714   1.444       .  A
C1713      C1718   1.409       .  A
C1713      H1720   1.078       .  S
C1714      C1715   1.420       .  A
C1715      C1716   1.410       .  A
C1715     Br1722   1.922       .  S
C1716      C1717   1.431       .  A
C1716      H1721   1.082       .  S
C1717      C1718   1.418       .  A
C1718     Br1719   1.926       .  S
C1723      C1724   1.420       .  A
C1723      C1728   1.395       .  A
C1723      H1730   1.069       .  S
C1724      C1725   1.418       .  A
C1725      C1726   1.417       .  A
C1725     Br1732   1.919       .  S
C1726      C1727   1.433       .  A
C1726      H1731   1.081       .  S
C1727      C1728   1.416       .  A
C1728     Br1729   1.917       .  S
C1733      C1734   1.404       .  A
C1733      C1738   1.404       .  A
C1733      H1740   1.084       .  S
C1734      C1735   1.394       .  A
C1735      C1736   1.366       .  A
C1735     Br1742   1.875       .  S
C1736      C1737   1.399       .  A
C1736      H1741   1.076       .  S
C1737      C1738   1.436       .  A
C1738     Br1739   1.926       .  S
C1743      C1744   1.426       .  A
C1743      C1748   1.397       .  A
C1743      H1750   1.083       .  S
C1744      C1745   1.397       .  A
C1745      C1746   1.381       .  A
C1745     Br1752   1.932       .  S
C1746      C1747   1.405       .  A
C1746      H1751   1.080       .  S
C1747      C1748   1.397       .  A
C1748     Br1749   1.915       .  S
C1753      C1754   1.421       .  A
C1753      C1758   1.427       .  A
C1753      H1760   1.078       .  S
C1754      C1755   1.410       .  A
C1755      C1756   1.390       .  A
C1755     Br1762   1.938       .  S
C1756      C1757   1.396       .  A
C1756      H1761   1.066       .  S
C1757      C1758   1.458       .  A
C1758     Br1759   1.925       .  S
C1763      C1764   1.428       .  A
C1763      C1768   1.405       .  A
C1763      H1770   1.063       .  S
C1764      C1765   1.420       .  A
C1765      C1766   1.404       .  A
C1765     Br1772   1.928       .  S
C1766      C1767   1.429       .  A
C1766      H1771   1.076       .  S
C1767      C1768   1.398       .  A
C1768     Br1769   1.925       .  S
C1773      C1774   1.412       .  A
C1773      C1778   1.423       .  A
C1773      H1780   1.080       .  S
C1774      C1775   1.456       .  A
C1775      C1776   1.416       .  A
C1775     Br1782   1.936       .  S
C1776      C1777   1.399       .  A
C1776      H1781   1.082       .  S
C1777      C1778   1.437       .  A
C1778     Br1779   1.923       .  S
C1783      C1784   1.429       .  A
C1783      C1788   1.420       .  A
C1783      H1790   1.059       .  S
C1784      C1785   1.416       .  A
C1785      C1786   1.430       .  A
C1785     Br1792   1.901       .  S
C1786      C1787   1.445       .  A
C1786      H1791   1.069       .  S
C1787      C1788   1.420       .  A
C1788     Br1789   1.920       .  S
C1793      C1794   1.435       .  A
C1793      C1798   1.449       .  A
C1793      H1800   1.082       .  S
C1794      C1795   1.398       .  A
C1795      C1796   1.400       .  A
C1795     Br1802   1.914   1_565  S
C1796      C1797   1.410       .  A
C1796      H1801   1.078       .  S
C1797      C1798   1.444       .  A
C1798     Br1799   1.906       .  S
C1803      C1804   1.406       .  A
C1803      C1808   1.427       .  A
C1803      H1810   1.082       .  S
C1804      C1805   1.432       .  A
C1805      C1806   1.420       .  A
C1805     Br1812   1.916       .  S
C1806      C1807   1.416       .  A
C1806      H1811   1.076       .  S
C1807      C1808   1.450       .  A
C1808     Br1809   1.911       .  S
C1813      C1814   1.424       .  A
C1813      C1818   1.403       .  A
C1813      H1820   1.076       .  S
C1814      C1815   1.430       .  A
C1815      C1816   1.393   1_565  A
C1815     Br1822   1.929   1_565  S
C1816      C1817   1.410   1_545  A
C1816      H1821   1.064       .  S
C1817      C1818   1.413       .  A
C1818     Br1819   1.936       .  S
C1823      C1824   1.431       .  A
C1823      C1828   1.438       .  A
C1823      H1830   1.081       .  S
C1824      C1825   1.417       .  A
C1825      C1826   1.406       .  A
C1825     Br1832   1.911       .  S
C1826      C1827   1.419       .  A
C1826      H1831   1.065       .  S
C1827      C1828   1.428       .  A
C1828     Br1829   1.915   1_565  S
C1833      C1834   1.416       .  A
C1833      C1838   1.418       .  A
C1833      H1840   1.082       .  S
C1834      C1835   1.432       .  A
C1835      C1836   1.423       .  A
C1835     Br1842   1.929       .  S
C1836      C1837   1.416       .  A
C1836      H1841   1.072       .  S
C1837      C1838   1.440       .  A
C1838     Br1839   1.921       .  S
C1843      C1844   1.397       .  A
C1843      C1848   1.405       .  A
C1843      H1850   1.085       .  S
C1844      C1845   1.421   1_545  A
C1845      C1846   1.396       .  A
C1845     Br1852   1.907       .  S
C1846      C1847   1.414       .  A
C1846      H1851   1.077       .  S
C1847      C1848   1.445   1_565  A
C1848     Br1849   1.903       .  S
C1853      C1854   1.418       .  A
C1853      C1858   1.396   1_554  A
C1853      H1860   1.077       .  S
C1854      C1855   1.417       .  A
C1855      C1856   1.421   1_554  A
C1855     Br1862   1.925   1_565  S
C1856      C1857   1.430       .  A
C1856      H1861   1.078       .  S
C1857      C1858   1.437       .  A
C1858     Br1859   1.937       .  S
C1863      C1864   1.415       .  A
C1863      C1868   1.393       .  A
C1863      H1870   1.081       .  S
C1864      C1865   1.426       .  A
C1865      C1866   1.409       .  A
C1865     Br1872   1.926       .  S
C1866      C1867   1.421       .  A
C1866      H1871   1.069       .  S
C1867      C1868   1.419       .  A
C1868     Br1869   1.921       .  S
C1873      C1874   1.410       .  A
C1873      C1878   1.425       .  A
C1873      H1880   1.076       .  S
C1874      C1875   1.420       .  A
C1875      C1876   1.397       .  A
C1875     Br1882   1.931       .  S
C1876      C1877   1.420       .  A
C1876      H1881   1.071       .  S
C1877      C1878   1.431       .  A
C1878     Br1879   1.922       .  S
C1883      C1884   1.400       .  A
C1883      C1888   1.376       .  A
C1883      H1890   1.048       .  S
C1884      C1885   1.432       .  A
C1885      C1886   1.444       .  A
C1885     Br1892   1.916       .  S
C1886      C1887   1.432       .  A
C1886      H1891   1.081       .  S
C1887      C1888   1.408       .  A
C1888     Br1889   1.910       .  S
C1893      C1894   1.400       .  A
C1893      C1898   1.378       .  A
C1893      H1900   1.084       .  S
C1894      C1895   1.401       .  A
C1895      C1896   1.375       .  A
C1895     Br1902   1.915       .  S
C1896      C1897   1.406       .  A
C1896      H1901   1.069       .  S
C1897      C1898   1.418       .  A
C1898     Br1899   1.912       .  S
C1903      C1904   1.421       .  A
C1903      C1908   1.405       .  A
C1903      H1910   1.064       .  S
C1904      C1905   1.411       .  A
C1905      C1906   1.414       .  A
C1905     Br1912   1.922       .  S
C1906      C1907   1.438       .  A
C1906      H1911   1.079       .  S
C1907      C1908   1.423       .  A
C1908     Br1909   1.913       .  S
C1913      C1914   1.423       .  A
C1913      C1918   1.405       .  A
C1913      H1920   1.073       .  S
C1914      C1915   1.442       .  A
C1915      C1916   1.422       .  A
C1915     Br1922   1.911       .  S
C1916      C1917   1.414       .  A
C1916      H1921   1.067       .  S
C1917      C1918   1.421       .  A
C1918     Br1919   1.908       .  S
C1923      C1924   1.414       .  A
C1923      C1928   1.359       .  A
C1923      H1930   1.073       .  S
C1924      C1925   1.429       .  A
C1925      C1926   1.390       .  A
C1925     Br1932   1.922       .  S
C1926      C1927   1.394       .  A
C1926      H1931   1.084       .  S
C1927      C1928   1.388       .  A
C1928     Br1929   1.920       .  S
C1933      C1934   1.417       .  A
C1933      C1938   1.393       .  A
C1933      H1940   1.069       .  S
C1934      C1935   1.430       .  A
C1935      C1936   1.403       .  A
C1935     Br1942   1.925       .  S
C1936      C1937   1.415       .  A
C1936      H1941   1.072       .  S
C1937      C1938   1.417       .  A
C1938     Br1939   1.932       .  S
C1943      C1944   1.392       .  A
C1943      C1948   1.406       .  A
C1943      H1950   1.081       .  S
C1944      C1945   1.414       .  A
C1945      C1946   1.416       .  A
C1945     Br1952   1.924       .  S
C1946      C1947   1.403       .  A
C1946      H1951   1.077       .  S
C1947      C1948   1.456       .  A
C1948     Br1949   1.922       .  S
C1953      C1954   1.412       .  A
C1953      C1958   1.419       .  A
C1953      H1960   1.080       .  S
C1954      C1955   1.447       .  A
C1955      C1956   1.421       .  A
C1955     Br1962   1.935       .  S
C1956      C1957   1.408       .  A
C1956      H1961   1.065       .  S
C1957      C1958   1.429       .  A
C1958     Br1959   1.921       .  S
C1963      C1964   1.402       .  A
C1963      C1968   1.418       .  A
C1963      H1970   1.082       .  S
C1964      C1965   1.433       .  A
C1965      C1966   1.451       .  A
C1965     Br1972   1.917       .  S
C1966      C1967   1.438       .  A
C1966      H1971   1.080       .  S
C1967      C1968   1.466       .  A
C1968     Br1969   1.926       .  S
C1973      C1974   1.404       .  A
C1973      C1978   1.396       .  A
C1973      H1980   1.053       .  S
C1974      C1975   1.453       .  A
C1975      C1976   1.394       .  A
C1975     Br1982   1.957       .  S
C1976      C1977   1.411       .  A
C1976      H1981   1.077       .  S
C1977      C1978   1.435       .  A
C1978     Br1979   1.931       .  S
C1983      C1984   1.418       .  A
C1983      C1988   1.381       .  A
C1983      H1990   1.064       .  S
C1984      C1985   1.453       .  A
C1985      C1986   1.430       .  A
C1985     Br1992   1.935       .  S
C1986      C1987   1.419       .  A
C1986      H1991   1.083       .  S
C1987      C1988   1.400       .  A
C1988     Br1989   1.905       .  S
C1993      C1994   1.420       .  A
C1993      C1998   1.374       .  A
C1993      H2000   1.083       .  S
C1994      C1995   1.431       .  A
C1995      C1996   1.408       .  A
C1995     Br2002   1.913       .  S
C1996      C1997   1.401       .  A
C1996      H2001   1.084       .  S
C1997      C1998   1.398       .  A
C1998     Br1999   1.921       .  S
C2003      C2004   1.424       .  A
C2003      C2008   1.410       .  A
C2003      H2010   1.079       .  S
C2004      C2005   1.429       .  A
C2005      C2006   1.408       .  A
C2005     Br2012   1.917       .  S
C2006      C2007   1.422       .  A
C2006      H2011   1.079       .  S
C2007      C2008   1.414       .  A
C2008     Br2009   1.916       .  S
C2013      C2014   1.434       .  A
C2013      C2018   1.425   1_556  A
C2013      H2020   1.076       .  S
C2014      C2015   1.410       .  A
C2015      C2016   1.393   1_556  A
C2015     Br2022   1.928       .  S
C2016      C2017   1.410       .  A
C2016      H2021   1.049       .  S
C2017      C2018   1.432       .  A
C2018     Br2019   1.929       .  S
C2023      C2024   1.429       .  A
C2023      C2028   1.445       .  A
C2023      H2030   1.078       .  S
C2024      C2025   1.415       .  A
C2025      C2026   1.401       .  A
C2025     Br2032   1.936       .  S
C2026      C2027   1.426       .  A
C2026      H2031   1.051       .  S
C2027      C2028   1.439       .  A
C2028     Br2029   1.920       .  S
C2033      C2034   1.421       .  A
C2033      C2038   1.416       .  A
C2033      H2040   1.079       .  S
C2034      C2035   1.433       .  A
C2035      C2036   1.422       .  A
C2035     Br2042   1.925       .  S
C2036      C2037   1.429       .  A
C2036      H2041   1.079       .  S
C2037      C2038   1.428       .  A
C2038     Br2039   1.919       .  S
C2043      C2044   1.398       .  A
C2043      C2048   1.385       .  A
C2043      H2050   1.064       .  S
C2044      C2045   1.438       .  A
C2045      C2046   1.395       .  A
C2045     Br2052   1.928       .  S
C2046      C2047   1.403       .  A
C2046      H2051   1.081       .  S
C2047      C2048   1.430       .  A
C2048     Br2049   1.924       .  S
C2053      C2054   1.425       .  A
C2053      C2058   1.376       .  A
C2053      H2060   1.084       .  S
C2054      C2055   1.408       .  A
C2055      C2056   1.388       .  A
C2055     Br2062   1.906       .  S
C2056      C2057   1.403       .  A
C2056      H2061   1.082       .  S
C2057      C2058   1.396       .  A
C2058     Br2059   1.918       .  S
C2063      C2064   1.405       .  A
C2063      C2068   1.395       .  A
C2063      H2070   1.083       .  S
C2064      C2065   1.424       .  A
C2065      C2066   1.397       .  A
C2065     Br2072   1.853   1_565  S
C2066      C2067   1.395       .  A
C2066      H2071   1.074       .  S
C2067      C2068   1.435       .  A
C2068     Br2069   1.902       .  S
C2073      C2074   1.403       .  A
C2073      C2078   1.403       .  A
C2073      H2080   1.060       .  S
C2074      C2075   1.397       .  A
C2075      C2076   1.401       .  A
C2075     Br2082   1.902       .  S
C2076      C2077   1.411       .  A
C2076      H2081   1.072       .  S
C2077      C2078   1.429       .  A
C2078     Br2079   1.911       .  S
C2083      C2084   1.393       .  A
C2083      C2088   1.392       .  A
C2083      H2090   1.080       .  S
C2084      C2085   1.456       .  A
C2085      C2086   1.403       .  A
C2085     Br2092   1.915       .  S
C2086      C2087   1.386       .  A
C2086      H2091   1.084       .  S
C2087      C2088   1.444       .  A
C2088     Br2089   1.923       .  S
C2093      C2094   1.406       .  A
C2093      C2098   1.398       .  A
C2093      H2100   1.083       .  S
C2094      C2095   1.431       .  A
C2095      C2096   1.430       .  A
C2095     Br2102   1.911       .  S
C2096      C2097   1.419       .  A
C2096      H2101   1.080       .  S
C2097      C2098   1.436       .  A
C2098     Br2099   1.918       .  S
C2103      C2104   1.443       .  A
C2103      C2108   1.453       .  A
C2103      H2110   1.082       .  S
C2104      C2105   1.432       .  A
C2105      C2106   1.424       .  A
C2105     Br2112   1.924       .  S
C2106      C2107   1.436       .  A
C2106      H2111   1.073       .  S
C2107      C2108   1.437       .  A
C2108     Br2109   1.900       .  S
