geometry optimzed in LAMMPS
_audit_creation_date              2020-11-30 
_audit_creation_method            'lammps2cif' 
_symmetry_space_group_name_H-M    'P1' 
_symmetry_Int_Tables_number       1 
_symmetry_cell_setting            triclinic 
loop_ 
_symmetry_equiv_pos_as_xyz 
  x,y,z 
_cell_length_a                    40.71803886 
_cell_length_b                    40.64842634020024 
_cell_length_c                    40.67589716835761 
_cell_angle_alpha                 90.05618931345953 
_cell_angle_beta                  90.1053143095603 
_cell_angle_gamma                 90.0980089000369 
loop_ 
_atom_site_label 
_atom_site_type_symbol 
_atom_site_fract_x 
_atom_site_fract_y 
_atom_site_fract_z 
_atom_site_charge 
O1          O  0.62824449  0.61588560  0.69450932    -0.88400
C2          C  0.64070234  0.56381787  0.60935864     0.87600
Mg3        Mg  0.58502958  0.64562887  0.70446272     1.58100
O4          O  0.69024378  0.63391617  0.61489454    -0.88200
O5          O  0.68204887  0.62037327  0.69085796    -0.75500
C6          C  0.56175282  0.73325618  0.57043582     0.92700
O7          O  0.57509795  0.58305931  0.64796610    -0.75300
O8          O  0.55075746  0.72430722  0.59787794    -0.82800
Mg9        Mg  0.62070437  0.56690866  0.67761052     1.58000
C10         C  0.70258245  0.69686373  0.53786631     0.92600
O11         O  0.66193358  0.54720349  0.71052427    -0.81100
H12         H  0.72364799  0.66132124  0.63850486    -0.06400
C13         C  0.60346854  0.64674495  0.56389479     0.87500
O14         O  0.61506066  0.69138574  0.68776873    -0.75600
O15         O  0.65133135  0.57492041  0.63568304    -0.88300
O16         O  0.70336427  0.66678397  0.54574358    -0.81200
C17         C  0.72840803  0.57051560  0.56666167     0.92700
C18         C  0.69232019  0.54048550  0.71030251     0.92500
Mg19       Mg  0.64016269  0.70540565  0.59001490     1.58000
O20         O  0.59135424  0.72611180  0.56116465    -0.81100
O21         O  0.68645439  0.68793894  0.61849889    -0.75300
O22         O  0.72387518  0.56280126  0.59732800    -0.81200
O23         O  0.58959864  0.55650250  0.71999407    -0.82900
O24         O  0.54330656  0.71022435  0.66810025    -0.81200
C25         C  0.70116266  0.66084120  0.62434348     0.87000
O26         O  0.61108317  0.69583261  0.63387421    -0.88300
O27         O  0.63004954  0.65585312  0.57562460    -0.88400
O28         O  0.57641298  0.65187199  0.57863678    -0.75500
Mg29       Mg  0.70048784  0.59119466  0.64546868     1.58000
O30         O  0.71429159  0.59478635  0.55359970    -0.82900
H31         H  0.65502379  0.64070436  0.72756250    -0.06600
O32         O  0.57037400  0.63656500  0.65464386    -0.88100
H33         H  0.53765208  0.61007867  0.62909520    -0.06400
H34         H  0.63624277  0.72812032  0.66130568    -0.06600
C35         C  0.55989640  0.61008869  0.64364568     0.87000
C36         C  0.65487965  0.62602591  0.70534517     0.87500
C37         C  0.62125579  0.70613658  0.66076289     0.87600
H38         H  0.60330284  0.63343402  0.54087687    -0.06600
O39         O  0.64384740  0.57926769  0.58236295    -0.75600
Mg40       Mg  0.56182828  0.67963069  0.62590712     1.58000
H41         H  0.62714962  0.54094231  0.60955192    -0.06600
C42         C  0.56257672  0.56803118  0.72966079     0.92600
O43         O  0.54254630  0.68422926  0.71590351    -0.82800
C44         C  0.53565733  0.70948052  0.69815883     0.92600
O45         O  0.71043339  0.54856659  0.68545891    -0.82800
Mg46       Mg  0.67191707  0.62552239  0.56610210     1.58200
O47         O  0.55395300  0.59800313  0.72366004    -0.81100
O48         O  0.67788611  0.71503066  0.54585910    -0.82800
O49         O  0.87838286  0.55499442  0.36484406    -0.88400
C50         C  0.89102805  0.63763032  0.30865839     0.87600
Mg51       Mg  0.83490595  0.54597707  0.39464432     1.58100
O52         O  0.93983202  0.63465475  0.37897327    -0.88200
O53         O  0.93220138  0.55827120  0.36862681    -0.75500
C54         C  0.80924713  0.68279136  0.47771449     0.92700
O55         O  0.82543070  0.59948067  0.32955778    -0.75300
O56         O  0.79701348  0.65691851  0.46590738    -0.82800
Mg57       Mg  0.87112621  0.56945459  0.31515103     1.58000
C58         C  0.95170367  0.71204787  0.44094560     0.92600
O59         O  0.91172847  0.53572108  0.29688768    -0.81100
H60         H  0.97189030  0.61147793  0.40814330    -0.06400
C61         C  0.85257897  0.68618648  0.38919203     0.87500
O62         O  0.86410719  0.56472452  0.43986596    -0.75600
O63         O  0.90155557  0.61185744  0.32099986    -0.88300
O64         O  0.95271790  0.70383290  0.41086341    -0.81200
C65         C  0.97896673  0.67986030  0.31330199     0.92700
C66         C  0.94182871  0.53573501  0.28931020     0.92500
Mg67       Mg  0.88819305  0.66216959  0.44997222     1.58000
O68         O  0.83943812  0.69132992  0.47174898    -0.81100
O69         O  0.93427528  0.63287185  0.43295751    -0.75300
O70         O  0.97460723  0.64884114  0.30701135    -0.81200
O71         O  0.84114731  0.52628309  0.30673552    -0.82900
O72         O  0.79174638  0.58533188  0.45741173    -0.81200
C73         C  0.94969015  0.62593237  0.40651151     0.87000
O74         O  0.85890227  0.61867791  0.44187309    -0.88300
O75         O  0.87898970  0.67522233  0.39959698    -0.88400
O76         O  0.82543169  0.67145214  0.39419508    -0.75500
Mg77       Mg  0.95059134  0.60236344  0.33748442     1.58000
O78         O  0.96429767  0.69399920  0.33679473    -0.82900
H79         H  0.90492600  0.52279264  0.39082849    -0.06600
O80         O  0.82000175  0.59499488  0.38318798    -0.88100
H81         H  0.78755491  0.61913939  0.35526135    -0.06400
H82         H  0.88379172  0.59332041  0.47587152    -0.06600
C83         C  0.80984167  0.60474930  0.35615538     0.87000
C84         C  0.90492968  0.54433839  0.37523206     0.87500
C85         C  0.86927626  0.59249844  0.45359401     0.87600
H86         H  0.85269508  0.70844940  0.37467045    -0.06600
O87         O  0.89379358  0.66530112  0.32306569    -0.75600
Mg88       Mg  0.81002972  0.62583196  0.42413982     1.58000
H89         H  0.87782655  0.63635198  0.28562251    -0.06600
C90         C  0.81362591  0.51790070  0.31788016     0.92600
O91         O  0.79228383  0.53619729  0.43382866    -0.82800
C92         C  0.78506501  0.55500079  0.45829304     0.92600
O93         O  0.96020445  0.56083638  0.29617658    -0.82800
Mg94       Mg  0.92159132  0.68313011  0.36896009     1.58200
O95         O  0.80452361  0.52510366  0.34742676    -0.81100
O96         O  0.92633130  0.70560090  0.45873165    -0.82800
O97         O  0.86256346  0.42006118  0.16051986    -0.88400
C98         C  0.87072414  0.32890870  0.20388815     0.87600
Mg99       Mg  0.81980670  0.43649956  0.13313032     1.58100
O100        O  0.91702161  0.33857981  0.13274692    -0.88200
O101        O  0.91570179  0.41287477  0.15391191    -0.75500
C102        C  0.78109723  0.31065533  0.03572173     0.92700
O103        O  0.80717316  0.37507520  0.19210162    -0.75300
O104        O  0.77064115  0.33490357  0.05200878    -0.82800
Mg105      Mg  0.85572373  0.39912427  0.20819888     1.58000
C106        C  0.92394031  0.27185662  0.06079170     0.92600
O107        O  0.90070584  0.42752708  0.22819508    -0.81100
H108        H  0.94940387  0.36449107  0.10640153    -0.06400
C109        C  0.82698813  0.29480589  0.12093682     0.87500
O110        O  0.84522133  0.42005364  0.08517954    -0.75600
O111        O  0.88258097  0.35556016  0.19493737    -0.88300
O112        O  0.92507812  0.27472959  0.09172640    -0.81200
C113        C  0.95591837  0.28175810  0.18875935     0.92700
C114        C  0.93115742  0.42352550  0.23360845     0.92500
Mg115      Mg  0.86195443  0.32433977  0.06136214     1.58000
O116        O  0.81119600  0.30046331  0.03831157    -0.81100
O117        O  0.90989560  0.34905553  0.08000378    -0.75300
O118        O  0.95311622  0.31154070  0.19996080    -0.81200
O119        O  0.82761402  0.44204959  0.22372277    -0.82900
O120        O  0.77077266  0.40718797  0.06897240    -0.81200
C121        C  0.92651456  0.35098041  0.10656604     0.87000
O122        O  0.83542141  0.36740077  0.07689324    -0.88300
O123        O  0.85357327  0.30467904  0.10978655    -0.88400
O124        O  0.80102514  0.31223750  0.12008931    -0.75500
Mg125      Mg  0.93156145  0.36349023  0.17756132     1.58000
O126        O  0.93999549  0.27206905  0.16391820    -0.82900
H127        H  0.89105132  0.45336235  0.13823652    -0.06600
O128        O  0.80011313  0.38779017  0.13996257    -0.88100
H129        H  0.76637090  0.36328154  0.16590915    -0.06400
H130        H  0.86072854  0.39488826  0.04500771    -0.06600
C131        C  0.78999760  0.37544901  0.16591668     0.87000
C132        C  0.88961364  0.42984888  0.15060757     0.87500
C133        C  0.84732053  0.39398891  0.06790745     0.87600
H134        H  0.82610700  0.27108274  0.13288850    -0.06600
O135        O  0.87168617  0.30324471  0.18589650    -0.75600
Mg136      Mg  0.78704283  0.36160688  0.09625110     1.58000
H137        H  0.85814734  0.32770732  0.22722771    -0.06600
C138        C  0.80420705  0.45941934  0.21317109     0.92600
O139        O  0.77758466  0.45390507  0.09660158    -0.82800
C140        C  0.76759030  0.43808346  0.07099513     0.92600
O141        O  0.94608255  0.39744642  0.22329360    -0.82800
Mg142      Mg  0.89657807  0.29016092  0.13676557     1.58200
O143        O  0.79457026  0.45823672  0.18289257    -0.81100
O144        O  0.89863519  0.28176631  0.04446483    -0.82800
C145        C  0.75740276  0.50154450  0.00639883     0.80100
N146        N  0.74123102  0.48505572  0.98237087    -0.78200
C147        C  0.73197606  0.45358346  0.98689733     0.82600
N148        N  0.73911160  0.43855745  0.01635612    -0.78100
C149        C  0.75509334  0.45530462  0.04102992     0.82700
N150        N  0.76385327  0.48695601  0.03574858    -0.79800
C151        C  0.00214912  0.47481965  0.25843750     0.80100
N152        N  0.98320844  0.44955408  0.24788234    -0.78200
C153        C  0.95017997  0.45099173  0.24982675     0.82600
N154        N  0.93598839  0.47915888  0.26266903    -0.78100
C155        C  0.95541839  0.50511073  0.27342275     0.82700
N156        N  0.98833383  0.50248113  0.27066968    -0.79800
O157        O  0.61414236  0.40983971  0.82643579    -0.88400
C158        C  0.62583118  0.45478545  0.91604384     0.87600
Mg159      Mg  0.57006948  0.38351631  0.81201576     1.58100
O160        O  0.66910940  0.38161696  0.90721994    -0.88200
O161        O  0.66715501  0.40131670  0.83234305    -0.75500
C162        C  0.53135422  0.28859082  0.93823058     0.92700
O163        O  0.56122279  0.44401473  0.87235668    -0.75300
O164        O  0.52035883  0.30522788  0.91453449    -0.82800
Mg165      Mg  0.60942187  0.45811596  0.84664290     1.58000
C166        C  0.67316715  0.31138307  0.97709837     0.92600
O167        O  0.65425713  0.47644473  0.81707312    -0.81100
H168        H  0.70072294  0.35341319  0.88239607    -0.06400
C169        C  0.57938951  0.37324644  0.95342850     0.87500
O170        O  0.59462792  0.33508041  0.82835769    -0.75600
O171        O  0.63694282  0.44477614  0.88950734    -0.88300
O172        O  0.67627139  0.34201886  0.97263069    -0.81200
C173        C  0.71067099  0.43737660  0.96190284     0.92700
C174        C  0.68488220  0.48130565  0.82065197     0.92500
Mg175      Mg  0.61217757  0.31251171  0.92404826     1.58000
O176        O  0.56161494  0.29093579  0.94788092    -0.81100
O177        O  0.66059523  0.32873720  0.89885796    -0.75300
O178        O  0.70831706  0.44759963  0.93179143    -0.81200
O179        O  0.58036785  0.47403805  0.80443438    -0.82900
O180        O  0.52063190  0.32108499  0.84352623    -0.81200
C181        C  0.67789014  0.35473848  0.89584415     0.87000
O182        O  0.58570671  0.32801864  0.88123259    -0.88300
O183        O  0.60533189  0.36159720  0.94261933    -0.88400
O184        O  0.55286558  0.37287691  0.93682581    -0.75500
Mg185      Mg  0.68490354  0.42527240  0.88094678     1.58000
O186        O  0.69350770  0.41386169  0.97257917    -0.82900
H187        H  0.64076812  0.38599933  0.79273060    -0.06600
O188        O  0.55218294  0.39179312  0.86113039    -0.88100
H189        H  0.52018108  0.41933186  0.88620047    -0.06400
H190        H  0.60955052  0.29490972  0.85388888    -0.06600
C191        C  0.54332464  0.41832789  0.87324053     0.87000
C192        C  0.64049328  0.39877373  0.81608469     0.87500
C193        C  0.59680418  0.31820929  0.85463331     0.87600
H194        H  0.57959358  0.38519358  0.97718608    -0.06600
O195        O  0.62609131  0.43719363  0.94192384    -0.75600
Mg196      Mg  0.53791781  0.34882996  0.88784308     1.58000
H197        H  0.61431640  0.47870330  0.91690164    -0.06600
C198        C  0.55586751  0.46366992  0.78841656     0.92600
O199        O  0.52616757  0.34816582  0.79653086    -0.82800
C200        C  0.51655627  0.32276874  0.81283388     0.92600
O201        O  0.70021199  0.47019911  0.84618696    -0.82800
Mg202      Mg  0.64932111  0.38758504  0.95574650     1.58200
O203        O  0.54568906  0.43361196  0.79053430    -0.81100
O204        O  0.64719346  0.29598371  0.96750732    -0.82800
O205        O  0.36588102  0.07536311  0.83968715    -0.88400
C206        C  0.37853851  0.16596767  0.79722521     0.87600
Mg207      Mg  0.32187780  0.06038194  0.86530402     1.58100
O208        O  0.42197490  0.15637930  0.87052081    -0.88200
O209        O  0.41876066  0.08154551  0.84969210    -0.75500
C210        C  0.28382794  0.18524809  0.96389323     0.92700
O211        O  0.31322238  0.12287105  0.80715017    -0.75300
O212        O  0.27333005  0.16106768  0.94747171    -0.82800
Mg213      Mg  0.36105650  0.09705755  0.79217507     1.58000
C214        C  0.42518864  0.22675941  0.94185748     0.92600
O215        O  0.40482546  0.06718490  0.77393348    -0.81100
H216        H  0.45409704  0.13186166  0.89849361    -0.06400
C217        C  0.33185709  0.20183279  0.87964995     0.87500
O218        O  0.34715119  0.07575730  0.91415272    -0.75600
O219        O  0.38914645  0.13914528  0.80699019    -0.88300
O220        O  0.42799651  0.22231047  0.91118169    -0.81200
C221        C  0.46297814  0.21168489  0.81509147     0.92700
C222        C  0.43565960  0.06905541  0.77045840     0.92500
Mg223      Mg  0.36500042  0.17197717  0.93985757     1.58000
O224        O  0.31393227  0.19541424  0.96147462    -0.81100
O225        O  0.41381574  0.14757948  0.92333029    -0.75300
O226        O  0.46044118  0.18162588  0.80440260    -0.81200
O227        O  0.33191580  0.05553376  0.77448891    -0.82900
O228        O  0.27301545  0.08975954  0.92899949    -0.81200
C229        C  0.43104887  0.14496979  0.89729246     0.87000
O230        O  0.33877026  0.12858372  0.92331667    -0.88300
O231        O  0.35801407  0.19109776  0.89093259    -0.88400
O232        O  0.30543959  0.18504011  0.88011387    -0.75500
Mg233      Mg  0.43710004  0.13010966  0.82640528     1.58000
O234        O  0.44646048  0.22192174  0.83925840    -0.82900
H235        H  0.39228758  0.04160837  0.86375470    -0.06600
O236        O  0.30440750  0.10991786  0.85895411    -0.88100
H237        H  0.27248626  0.13624929  0.83246286    -0.06400
H238        H  0.36346188  0.09996047  0.95474462    -0.06600
C239        C  0.29550496  0.12303304  0.83291196     0.87000
C240        C  0.39213506  0.06507735  0.85122510     0.87500
C241        C  0.35007482  0.10156368  0.93181627     0.87600
H242        H  0.33171177  0.22577194  0.86808772    -0.06600
O243        O  0.37906397  0.19162040  0.81517919    -0.75600
Mg244      Mg  0.29064155  0.13535587  0.90291428     1.58000
H245        H  0.36725745  0.16730119  0.77320345    -0.06600
C246        C  0.30696422  0.03973723  0.78386093     0.92600
O247        O  0.27829297  0.04352919  0.90043911    -0.82800
C248        C  0.26859475  0.05909650  0.92624495     0.92600
O249        O  0.45184602  0.09414050  0.78170472    -0.82800
Mg250      Mg  0.40196080  0.20488919  0.86515509     1.58200
O251        O  0.29666436  0.04093697  0.81394270    -0.81100
O252        O  0.39983308  0.21602800  0.95747438    -0.82800
C253        C  0.48369062  0.25446611  0.00677106     0.85700
N254        N  0.50861667  0.26713822  0.98889907    -0.78200
C255        C  0.50648661  0.26879150  0.95602853     0.82600
N256        N  0.47862459  0.25712723  0.94082705    -0.78100
C257        C  0.45347038  0.24336494  0.95873265     0.82700
N258        N  0.45623660  0.24234642  0.99194211    -0.79800
C259        C  0.50073822  0.26055929  0.74844105     0.80100
N260        N  0.48819193  0.23487881  0.76569853    -0.78200
C261        C  0.48286068  0.23752978  0.79826469     0.82600
N262        N  0.49060686  0.26671890  0.81369788    -0.78100
C263        C  0.50340158  0.29274568  0.79628823     0.82700
N264        N  0.50786857  0.28932601  0.76366331    -0.79800
C265        C  0.50236019  0.00970613  0.75500531     0.80100
N266        N  0.48752401  0.98449272  0.73898942    -0.78200
C267        C  0.45521599  0.98584192  0.73143253     0.82600
N268        N  0.43762933  0.01362551  0.74051720    -0.78100
C269        C  0.45319366  0.03973692  0.75611687     0.82700
N270        N  0.48547254  0.03714779  0.76282136    -0.79800
C271        C  0.99437726  0.98044385  0.24637222     0.80100
N272        N  0.01219518  0.95342451  0.25442863    -0.78200
C273        C  0.04465194  0.95267050  0.24814118     0.82600
N274        N  0.05901468  0.97965497  0.23426691    -0.78100
C275        C  0.04127202  0.00703612  0.22641258     0.82700
N276        N  0.00876631  0.00732444  0.23264852    -0.79800
C277        C  0.23387733  0.25312597  0.99701760     0.80100
N278        N  0.25972408  0.23590020  0.98513832    -0.78200
C279        C  0.25837236  0.20281778  0.98341724     0.82600
N280        N  0.23030906  0.18706757  0.99389557    -0.78100
C281        C  0.20431528  0.20453305  0.00659053     0.82700
N282        N  0.20646270  0.23763275  0.00785382    -0.79800
C283        C  0.25579049  0.99511906  0.98991327     0.80100
N284        N  0.24015799  0.01196098  0.01405626    -0.78200
C285        C  0.23115554  0.04357225  0.00938631     0.82600
N286        N  0.23880518  0.05859094  0.98007272    -0.78100
C287        C  0.25488206  0.04178725  0.95561435     0.82700
N288        N  0.26315430  0.01007357  0.96095551    -0.79800
C289        C  0.25463271  0.99819928  0.23164580     0.80100
N290        N  0.23673554  0.00793702  0.20540471    -0.78200
C291        C  0.20386941  0.00352731  0.20472188     0.82600
N292        N  0.18891184  0.98861897  0.23143388    -0.78100
C293        C  0.20742265  0.97810806  0.25806631     0.82700
N294        N  0.24020702  0.98312966  0.25753947    -0.79800
C295        C  0.99114337  0.26488931  0.99979126     0.80100
N296        N  0.96134829  0.27072555  0.01351950    -0.78200
C297        C  0.95461260  0.26003419  0.04424778     0.82600
N298        N  0.97839087  0.24264553  0.06091616    -0.78100
C299        C  0.00837470  0.23610670  0.04663370     0.82700
N300        N  0.01428869  0.24746337  0.01617061    -0.79800
C301        C  0.99048251  0.22950962  0.25459580     0.80100
N302        N  0.00180961  0.20298615  0.23791990    -0.78200
C303        C  0.00054770  0.20228813  0.20474940     0.82600
N304        N  0.98712158  0.22873253  0.18845808    -0.78100
C305        C  0.97565734  0.25571898  0.20544406     0.82700
N306        N  0.97739335  0.25562251  0.23856541    -0.79800
O307        O  0.11490996  0.08857780  0.17012575    -0.88400
C308        C  0.12574966  0.04448289  0.08018702     0.87600
Mg309      Mg  0.07080962  0.11419094  0.18547890     1.58100
O310        O  0.17008198  0.11695143  0.08937231    -0.88200
O311        O  0.16789397  0.09739893  0.16394850    -0.75500
C312        C  0.03278674  0.21362384  0.06223655     0.92700
O313        O  0.06177499  0.05529251  0.12370384    -0.75300
O314        O  0.02161034  0.19553305  0.08478545    -0.82800
Mg315      Mg  0.11004288  0.04055468  0.14925963     1.58000
C316        C  0.17508626  0.18776772  0.02121728     0.92600
O317        O  0.15464921  0.02244660  0.17897548    -0.81100
H318        H  0.20230899  0.14439619  0.11446772    -0.06400
C319        C  0.07979235  0.12773757  0.04423447     0.87500
O320        O  0.09539619  0.16323126  0.17041996    -0.75600
O321        O  0.13732518  0.05421302  0.10668887    -0.88300
O322        O  0.17703501  0.15693069  0.02478889    -0.81200
C323        C  0.21025718  0.06036023  0.03437626     0.92700
C324        C  0.18540950  0.01839618  0.17625383     0.92500
Mg325      Mg  0.11386854  0.18739908  0.07481906     1.58000
O326        O  0.06308283  0.21147199  0.05248166    -0.81100
O327        O  0.16214737  0.16966385  0.09915387    -0.75300
O328        O  0.20824036  0.05052333  0.06462886    -0.81200
O329        O  0.08170565  0.02390402  0.19108588    -0.82900
O330        O  0.02079369  0.17765063  0.15627321    -0.81200
C331        C  0.17927540  0.14352454  0.10123366     0.87000
O332        O  0.08698339  0.17150023  0.11761291    -0.88300
O333        O  0.10612226  0.13866601  0.05502623    -0.88400
O334        O  0.05346731  0.12831576  0.06105681    -0.75500
Mg335      Mg  0.18547429  0.07332825  0.11544022     1.58000
O336        O  0.19325792  0.08407074  0.02368588    -0.82900
H337        H  0.14177933  0.11268426  0.20361621    -0.06600
O338        O  0.05273290  0.10725691  0.13619674    -0.88100
H339        H  0.02083494  0.08027896  0.11016570    -0.06400
H340        H  0.11085282  0.20391235  0.14595840    -0.06600
C341        C  0.04392183  0.08100126  0.12331447     0.87000
C342        C  0.14134180  0.09982214  0.18030670     0.87500
C343        C  0.09797904  0.18066305  0.14453603     0.87600
H344        H  0.07943213  0.11628608  0.02024641    -0.06600
O345        O  0.12562041  0.06234663  0.05450654    -0.75600
Mg346      Mg  0.03877158  0.15115851  0.11067191     1.58000
H347        H  0.11401600  0.02063789  0.07926124    -0.06600
C348        C  0.05713234  0.03347806  0.20719875     0.92600
O349        O  0.02660133  0.14847130  0.20203352    -0.82800
C350        C  0.01628671  0.17426894  0.18685249     0.92600
O351        O  0.20088830  0.02900528  0.15065650    -0.82800
Mg352      Mg  0.14955557  0.11164898  0.04108791     1.58200
O353        O  0.04647604  0.06336252  0.20561656    -0.81100
O354        O  0.14979280  0.20386580  0.03148510    -0.82800
O355        O  0.37876634  0.94289097  0.63319712    -0.88400
C356        C  0.38889882  0.85761561  0.68619161     0.87600
Mg357      Mg  0.33653209  0.95294339  0.60174624     1.58100
O358        O  0.43924033  0.86291319  0.61728533    -0.88200
O359        O  0.43261576  0.93914217  0.63096236    -0.75500
C360        C  0.31098694  0.81634224  0.51556832     0.92700
O361        O  0.32435853  0.89705964  0.66507578    -0.75300
O362        O  0.29886906  0.84244575  0.52700674    -0.82800
Mg363      Mg  0.36989286  0.92599909  0.68214668     1.58000
C364        C  0.45233143  0.78607319  0.55427448     0.92600
O365        O  0.41076645  0.95896233  0.70369635    -0.81100
H366        H  0.47230698  0.88663518  0.58972412    -0.06400
C367        C  0.35242300  0.81184093  0.60395722     0.87500
O368        O  0.36657334  0.93402443  0.55716733    -0.75600
O369        O  0.39988447  0.88376593  0.67505435    -0.88300
O370        O  0.45286670  0.79441751  0.58426532    -0.81200
C371        C  0.47595316  0.81525132  0.68246498     0.92700
C372        C  0.44064554  0.95732081  0.71240226     0.92500
Mg373      Mg  0.38957547  0.83657120  0.54456223     1.58000
O374        O  0.34106405  0.80776417  0.52186078    -0.81100
O375        O  0.43551823  0.86553299  0.56317196    -0.75300
O376        O  0.47090495  0.84580067  0.68993772    -0.81200
O377        O  0.33896392  0.96783557  0.69183173    -0.82900
O378        O  0.29377667  0.91474671  0.53721985    -0.81200
C379        C  0.45002318  0.87214885  0.59029176     0.87000
O380        O  0.36053676  0.88023039  0.55291179    -0.88300
O381        O  0.37909711  0.82280978  0.59428119    -0.88400
O382        O  0.32556671  0.82701247  0.59894762    -0.75500
Mg383      Mg  0.44924605  0.89337836  0.66054644     1.58000
O384        O  0.46305741  0.80204917  0.65745253    -0.82900
H385        H  0.40649892  0.97602139  0.60971259    -0.06600
O386        O  0.32041508  0.90366280  0.61155371    -0.88100
H387        H  0.28673934  0.87915659  0.63757539    -0.06400
H388        H  0.38703261  0.90648483  0.52091156    -0.06600
C389        C  0.30931973  0.89317671  0.63788839     0.87000
C390        C  0.40574897  0.95372623  0.62421202     0.87500
C391        C  0.37174804  0.90668786  0.54261856     0.87600
H392        H  0.35205906  0.78922789  0.61791860    -0.06600
O393        O  0.39208829  0.83040995  0.67104992    -0.75600
Mg394      Mg  0.31129214  0.87330431  0.56963560     1.58000
H395        H  0.37501102  0.85815043  0.70880189    -0.06600
C396        C  0.31402347  0.98065983  0.67885933     0.92600
O397        O  0.29482807  0.96366936  0.56141262    -0.82800
C398        C  0.28726455  0.94513009  0.53677824     0.92600
O399        O  0.45825091  0.93209544  0.70445384    -0.82800
Mg400      Mg  0.42091753  0.81408373  0.62540855     1.58200
O401        O  0.30619248  0.97565036  0.64839802    -0.81100
O402        O  0.42737572  0.79272600  0.53592119    -0.82800
O403        O  0.13032782  0.88166681  0.30157620    -0.88400
C404        C  0.14286921  0.93502476  0.38662971     0.87600
Mg405      Mg  0.08764865  0.85099250  0.29119309     1.58100
O406        O  0.19135274  0.86454859  0.38086933    -0.88200
O407        O  0.18417419  0.87852615  0.30478860    -0.75500
C408        C  0.06081612  0.76646619  0.42804902     0.92700
O409        O  0.07680765  0.91443081  0.34749277    -0.75300
O410        O  0.04911439  0.77714320  0.40141243    -0.82800
Mg411      Mg  0.12240317  0.93069865  0.31848288     1.58000
C412        C  0.20341690  0.80180680  0.45744440     0.92600
O413        O  0.16319362  0.95151821  0.28573500    -0.81100
H414        H  0.22313559  0.83609390  0.35650410    -0.06400
C415        C  0.10419304  0.85377729  0.43157693     0.87500
O416        O  0.11692171  0.80588225  0.30981817    -0.75600
O417        O  0.15288200  0.92313616  0.36047586    -0.88300
O418        O  0.20428418  0.83177384  0.44934169    -0.81200
C419        C  0.23031258  0.92821018  0.42899114     0.92700
C420        C  0.19323350  0.95963013  0.28693704     0.92500
Mg421      Mg  0.13983600  0.79334477  0.40719513     1.58000
O422        O  0.09095795  0.77247065  0.43671948    -0.81100
O423        O  0.18586158  0.81054743  0.37777965    -0.75300
O424        O  0.22491596  0.93612600  0.39856633    -0.81200
O425        O  0.09143124  0.94077412  0.27647144    -0.82900
O426        O  0.04359517  0.78734355  0.32862680    -0.81200
C427        C  0.20112739  0.83726250  0.37126885     0.87000
O428        O  0.11067038  0.80200007  0.36355784    -0.88300
O429        O  0.13066803  0.84350985  0.42069351    -0.88400
O430        O  0.07712155  0.84886251  0.41660922    -0.75500
Mg431      Mg  0.20193530  0.90759762  0.35058500     1.58000
O432        O  0.21708785  0.90334988  0.44197927    -0.82900
H433        H  0.15723312  0.85790964  0.26802036    -0.06600
O434        O  0.07143368  0.86103328  0.34028408    -0.88100
H435        H  0.03859209  0.88773523  0.36514665    -0.06400
H436        H  0.13638507  0.76920334  0.33751801    -0.06600
C437        C  0.06108613  0.88758948  0.35105729     0.87000
C438        C  0.15701469  0.87230629  0.29042158     0.87500
C439        C  0.12163942  0.79129417  0.33718771     0.87600
H440        H  0.10417701  0.86805509  0.45401191    -0.06600
O441        O  0.14613317  0.92006824  0.41387852    -0.75600
Mg442      Mg  0.06175967  0.81948802  0.37046791     1.58000
H443        H  0.12988355  0.95818523  0.38610992    -0.06600
C444        C  0.06564364  0.92830264  0.26474052     0.92600
O445        O  0.04600090  0.81103709  0.27956747    -0.82800
C446        C  0.03796411  0.78657864  0.29802557     0.92600
O447        O  0.21122388  0.95136334  0.31183419    -0.82800
Mg448      Mg  0.17353001  0.87333745  0.42974474     1.58200
O449        O  0.05749013  0.89798061  0.26978963    -0.81100
O450        O  0.17818665  0.78382166  0.45063512    -0.82800
C451        C  0.01213277  0.74431439  0.50170431     0.80100
N452        N  0.03782631  0.75341762  0.48237388    -0.78200
C453        C  0.03613193  0.74972073  0.44938190     0.82600
N454        N  0.00777575  0.73710501  0.43583829    -0.78100
C455        C  0.98174372  0.72793929  0.45518489     0.82700
N456        N  0.98423203  0.73200638  0.48805985    -0.79800
C457        C  0.25381511  0.00290371  0.47392029     0.80100
N458        N  0.26705179  0.99084283  0.50219947    -0.78200
C459        C  0.27137558  0.95810775  0.50609698     0.82600
N460        N  0.26143049  0.93738451  0.48120875    -0.78100
C461        C  0.24874262  0.94961647  0.45231256     0.82700
N462        N  0.24548058  0.98237346  0.44907077    -0.79800
C463        C  0.26470211  0.74249349  0.48967258     0.80100
N464        N  0.28967906  0.76217176  0.49986202    -0.78200
C465        C  0.28696934  0.79516507  0.49758395     0.82600
N466        N  0.25849132  0.80824934  0.48474518    -0.78100
C467        C  0.23343282  0.78827706  0.47383164     0.82700
N468        N  0.23702055  0.75544400  0.47644683    -0.79800
C469        C  0.02368135  0.71549963  0.24174644     0.80100
N470        N  0.00802879  0.69360862  0.26161747    -0.78200
C471        C  0.00002370  0.70200802  0.29282533     0.82600
N472        N  0.00852020  0.73276318  0.30419077    -0.78100
C473        C  0.02433709  0.75502678  0.28443590     0.82700
N474        N  0.03164820  0.74599508  0.25330597    -0.79800
C475        C  0.24269911  0.01216578  0.72522843     0.80100
N476        N  0.25708635  0.02272887  0.75361868    -0.78200
C477        C  0.29010103  0.02183463  0.75679616     0.82600
N478        N  0.30827798  0.01032678  0.73105663    -0.78100
C479        C  0.29392232  0.99934071  0.70264133     0.82700
N480        N  0.26092107  0.00009247  0.70001867    -0.79800
C481        C  0.72815728  0.24383646  0.00359819     0.80100
N482        N  0.75482438  0.26019145  0.01547594    -0.78200
C483        C  0.75532081  0.29342424  0.01608278     0.82600
N484        N  0.72826580  0.31023068  0.00473777    -0.78100
C485        C  0.70157643  0.29375682  0.99214136     0.82700
N486        N  0.70204330  0.26061614  0.99162754    -0.79800
C487        C  0.50652301  0.77330622  0.75689390     0.80100
N488        N  0.51904949  0.74488433  0.74456664    -0.78200
C489        C  0.51963161  0.73965695  0.71176790     0.82600
N490        N  0.50719176  0.76351319  0.69141373    -0.78100
C491        C  0.49481655  0.79240745  0.70383255     0.82700
N492        N  0.49463060  0.79699594  0.73671105    -0.79800
C493        C  0.51137366  0.74672456  0.49690641     0.80100
N494        N  0.53768606  0.74067907  0.51630742    -0.78200
C495        C  0.53672796  0.74817581  0.54851668     0.82600
N496        N  0.50860055  0.76203132  0.56113907    -0.78100
C497        C  0.48220615  0.76910804  0.54124579     0.82700
N498        N  0.48393591  0.76118212  0.50905032    -0.79800
C499        C  0.76152450  0.75606013  0.50082794     0.80100
N500        N  0.73451642  0.74311562  0.51542980    -0.78200
C501        C  0.73195005  0.71036036  0.52006500     0.82600
N502        N  0.75728592  0.69057067  0.50955029    -0.78100
C503        C  0.78513492  0.70384953  0.49546704     0.82700
N504        N  0.78684041  0.73668207  0.49138050    -0.79800
C505        C  0.49360047  0.51030297  0.74038616     0.80100
N506        N  0.50997429  0.53897511  0.73462833    -0.78200
C507        C  0.54124706  0.54297814  0.74514205     0.82600
N508        N  0.55587033  0.51776834  0.76168889    -0.78100
C509        C  0.53964387  0.48909577  0.76807232     0.82700
N510        N  0.50854352  0.48546873  0.75717958    -0.79800
C511        C  0.75339544  0.52067676  0.77514151     0.80100
N512        N  0.73931691  0.53023957  0.74650890    -0.78200
C513        C  0.70693094  0.52550833  0.74097754     0.82600
N514        N  0.68842244  0.51044694  0.76524386    -0.78100
C515        C  0.70302616  0.49974110  0.79410885     0.82700
N516        N  0.73553496  0.50500399  0.79840656    -0.79800
C517        C  0.75928986  0.49689886  0.52401890     0.80100
N518        N  0.77026953  0.50927276  0.49500682    -0.78200
C519        C  0.77036743  0.54199447  0.48951914     0.82600
N520        N  0.75865224  0.56243905  0.51379592    -0.78100
C521        C  0.74752750  0.54991174  0.54326499     0.82700
N522        N  0.74777870  0.51711042  0.54777108    -0.79800
C523        C  0.74185574  0.50091880  0.26521909     0.80100
N524        N  0.75994332  0.50887689  0.29220832    -0.78200
C525        C  0.79235231  0.50245207  0.29289629     0.82600
N526        N  0.80647787  0.48810360  0.26608869    -0.78100
C527        C  0.78856287  0.47986059  0.23890866     0.82700
N528        N  0.75598694  0.48612761  0.23872800    -0.79800
O529        O  0.11217951  0.32099399  0.59877269    -0.88400
C530        C  0.12288510  0.40498078  0.54682291     0.87600
Mg531      Mg  0.07010258  0.31330030  0.62880441     1.58100
O532        O  0.17216553  0.40258480  0.61780477    -0.88200
O533        O  0.16534098  0.32605465  0.60665757    -0.75500
C534        C  0.04958104  0.45738850  0.71135402     0.92700
O535        O  0.05691418  0.36466151  0.56572332    -0.75300
O536        O  0.03116647  0.43268119  0.70394707    -0.82800
Mg537      Mg  0.10256267  0.33500890  0.54908555     1.58000
C538        C  0.17735786  0.48068086  0.68499871     0.92600
O539        O  0.15011400  0.30528871  0.52786287    -0.81100
H540        H  0.20623136  0.37965536  0.64480428    -0.06400
C541        C  0.08719792  0.45279266  0.62582626     0.87500
O542        O  0.09869686  0.33024088  0.67454304    -0.75600
O543        O  0.13255039  0.37843308  0.55828775    -0.88300
O544        O  0.18540701  0.47462751  0.65473675    -0.81200
C545        C  0.20888278  0.44180543  0.54359291     0.92700
C546        C  0.18051991  0.31344023  0.52341854     0.92500
Mg547      Mg  0.12150732  0.42593935  0.68586955     1.58000
O548        O  0.07977508  0.45731692  0.70417395    -0.81100
O549        O  0.16803399  0.39749055  0.67135144    -0.75300
O550        O  0.20111302  0.41162237  0.54302440    -0.81200
O551        O  0.06404604  0.29149141  0.54012458    -0.82900
O552        O  0.02132332  0.34644532  0.69255776    -0.81200
C553        C  0.18334439  0.39310173  0.64448382     0.87000
O554        O  0.09177789  0.38373800  0.67739897    -0.88300
O555        O  0.11386672  0.44249646  0.63638762    -0.88400
O556        O  0.06007161  0.43816415  0.63165205    -0.75500
Mg557      Mg  0.18121929  0.37122479  0.57678075     1.58000
O558        O  0.20107749  0.46008836  0.56837568    -0.82900
H559        H  0.13820405  0.28817840  0.62443779    -0.06600
O560        O  0.05275814  0.36206654  0.61964267    -0.88100
H561        H  0.02001634  0.38581794  0.59173830    -0.06400
H562        H  0.11598259  0.35849122  0.71193254    -0.06600
C563        C  0.04217058  0.37125428  0.59257111     0.87000
C564        C  0.13842522  0.31050810  0.61006332     0.87500
C565        C  0.10226954  0.35769169  0.68915821     0.87600
H566        H  0.08699429  0.47462704  0.61063778    -0.06600
O567        O  0.12865557  0.43246770  0.56091681    -0.75600
Mg568      Mg  0.04236234  0.39314237  0.66188037     1.58000
H569        H  0.10861726  0.40478865  0.52436713    -0.06600
C570        C  0.03898415  0.28397953  0.55801239     0.92600
O571        O  0.02799758  0.30300080  0.65954265    -0.82800
C572        C  0.01619429  0.31597974  0.68500439     0.92600
O573        O  0.19292950  0.33875414  0.53630618    -0.82800
Mg574      Mg  0.15720525  0.45152864  0.60666871     1.58200
O575        O  0.03787499  0.29226985  0.58798612    -0.81100
O576        O  0.15173120  0.46894221  0.69774973    -0.82800
O577        O  0.61015653  0.14367372  0.44481777    -0.88400
C578        C  0.60562642  0.18648755  0.35591928     0.87600
Mg579      Mg  0.65246531  0.11619217  0.45973390     1.58100
O580        O  0.55867609  0.11390676  0.36060709    -0.88200
O581        O  0.55781048  0.13316154  0.43655210    -0.75500
C582        C  0.68825347  0.02296934  0.32561052     0.92700
O583        O  0.66774165  0.17423071  0.40264881    -0.75300
O584        O  0.70396895  0.03244287  0.35154098    -0.82800
Mg585      Mg  0.61913664  0.19233354  0.42607215     1.58000
C586        C  0.56392574  0.04062134  0.28691842     0.92600
O587        O  0.56792228  0.21525092  0.44814492    -0.81100
H588        H  0.52319228  0.08797058  0.38256553    -0.06400
C589        C  0.64802339  0.10471670  0.31968504     0.87500
O590        O  0.62740107  0.06750420  0.44523997    -0.75600
O591        O  0.59342791  0.17723573  0.38223643    -0.88300
O592        O  0.55469001  0.07108337  0.28905918    -0.81200
C593        C  0.52545117  0.18317977  0.31160314     0.92700
C594        C  0.53790386  0.21767800  0.43759311     0.92500
Mg595      Mg  0.61305416  0.04616818  0.34889154     1.58000
O596        O  0.65783707  0.02804089  0.32261473    -0.81100
O597        O  0.56372631  0.06123950  0.37145040    -0.75300
O598        O  0.52886868  0.18483360  0.34238726    -0.81200
O599        O  0.65431378  0.20816009  0.47047964    -0.82900
O600        O  0.70881563  0.05330159  0.43833079    -0.81200
C601        C  0.54730726  0.08782626  0.37148771     0.87000
O602        O  0.63896452  0.05971550  0.39300457    -0.88300
O603        O  0.62085588  0.09415502  0.32850767    -0.88400
O604        O  0.67372643  0.10167098  0.33735486    -0.75500
Mg605      Mg  0.54493894  0.15723747  0.38715733     1.58000
O606        O  0.53586455  0.15802785  0.29532158    -0.82900
H607        H  0.58233049  0.12076910  0.47818856    -0.06600
O608        O  0.67392607  0.12119336  0.41203459    -0.88100
H609        H  0.70748288  0.14790930  0.38805529    -0.06400
H610        H  0.61396366  0.02678447  0.41958255    -0.06600
C611        C  0.68414009  0.14759410  0.40067072     0.87000
C612        C  0.58348704  0.13256934  0.45441716     0.87500
C613        C  0.62669412  0.05013265  0.41917696     0.87600
H614        H  0.64985265  0.11757615  0.29649253    -0.06600
O615        O  0.60364489  0.16949689  0.32964888    -0.75600
Mg616      Mg  0.68855992  0.07699689  0.38648607     1.58000
H617        H  0.61912712  0.20941639  0.35542537    -0.06600
C618        C  0.67929964  0.19159626  0.48079085     0.92600
O619        O  0.69506743  0.08826054  0.47846610    -0.82800
C620        C  0.71093052  0.06355464  0.46850530     0.92600
O621        O  0.52757242  0.20110185  0.41349661    -0.82800
Mg622      Mg  0.57852400  0.12149311  0.31213610     1.58200
O623        O  0.68074305  0.16078919  0.47677355    -0.81100
O624        O  0.58700091  0.02932956  0.30427762    -0.82800
C625        C  0.48881811  0.25131766  0.50539386     0.80100
N626        N  0.51455334  0.24030391  0.48760718    -0.78200
C627        C  0.51225508  0.23714895  0.45483098     0.82600
N628        N  0.48337846  0.24601201  0.43958665    -0.78100
C629        C  0.45741315  0.25833700  0.45737817     0.82700
N630        N  0.46045650  0.26069926  0.49043530    -0.79800
O631        O  0.35798773  0.30506098  0.39111713    -0.88400
C632        C  0.34646230  0.39366208  0.43526576     0.87600
Mg633      Mg  0.40204533  0.29301355  0.36475507     1.58100
O634        O  0.30113089  0.38636411  0.36192051    -0.88200
O635        O  0.30539187  0.31113438  0.37994631    -0.75500
C636        C  0.43286843  0.43131319  0.27540618     0.92700
O637        O  0.41210514  0.35027084  0.42452548    -0.75300
O638        O  0.44900046  0.40589516  0.28539020    -0.82800
Mg639      Mg  0.36454690  0.32346025  0.44040095     1.58000
C640        C  0.30328037  0.45833247  0.28905202     0.92600
O641        O  0.31461896  0.29664496  0.46107944    -0.81100
H642        H  0.26947253  0.36080782  0.33420423    -0.06400
C643        C  0.38826282  0.43265051  0.35660751     0.87500
O644        O  0.37796963  0.30690117  0.31552814    -0.75600
O645        O  0.33672161  0.36651412  0.42525655    -0.88300
O646        O  0.29202056  0.45535812  0.31866877    -0.81200
C647        C  0.26332229  0.43355201  0.43105091     0.92700
C648        C  0.28449158  0.30651923  0.46339294     0.92500
Mg649      Mg  0.35826748  0.40237953  0.29626641     1.58000
O650        O  0.40209944  0.43324656  0.27944583    -0.81100
O651        O  0.31029639  0.37556605  0.30970567    -0.75300
O652        O  0.26923290  0.40314394  0.43435414    -0.81200
O653        O  0.40179610  0.28107804  0.45668273    -0.82900
O654        O  0.45973140  0.31984475  0.30478577    -0.81200
C655        C  0.29242331  0.37417366  0.33533549     0.87000
O656        O  0.38663879  0.35994895  0.30953612    -0.88300
O657        O  0.36213192  0.42256325  0.34453278    -0.88400
O658        O  0.41514378  0.41678946  0.35399910    -0.75500
Mg659      Mg  0.28889374  0.35912696  0.40503606     1.58000
O660        O  0.27218222  0.44900692  0.40479541    -0.82900
H661        H  0.33214998  0.27139445  0.36615304    -0.06600
O662        O  0.42052652  0.34189187  0.37167438    -0.88100
H663        H  0.45184305  0.36742464  0.39977795    -0.06400
H664        H  0.36474788  0.33265873  0.27490292    -0.06600
C665        C  0.42925931  0.35345640  0.39853012     0.87000
C666        C  0.33197918  0.29468282  0.37899560     0.87500
C667        C  0.37644064  0.33328452  0.29877274     0.87600
H668        H  0.38814699  0.45545245  0.37036504    -0.06600
O669        O  0.34236338  0.42004045  0.41879571    -0.75600
Mg670      Mg  0.43472689  0.36947426  0.32876082     1.58000
H671        H  0.35931642  0.39495409  0.45852747    -0.06600
C672        C  0.42759695  0.27208346  0.44069572     0.92600
O673        O  0.44682273  0.27781257  0.33778909    -0.82800
C674        C  0.46332362  0.28957670  0.31428147     0.92600
O675        O  0.27401019  0.33109113  0.44779064    -0.82800
Mg676      Mg  0.31719843  0.43563631  0.36998717     1.58200
O677        O  0.42960615  0.27645104  0.40998176    -0.81100
O678        O  0.32932136  0.44434578  0.27995744    -0.82800
C679        C  0.50062193  0.48880021  0.25698118     0.80100
N680        N  0.48324811  0.46208591  0.26629679    -0.78200
C681        C  0.45051900  0.46049377  0.26134312     0.82600
N682        N  0.43487754  0.48703834  0.24688732    -0.78100
C683        C  0.45274821  0.51440906  0.23736729     0.82700
N684        N  0.48539400  0.51468426  0.24276028    -0.79800
C685        C  0.51644602  0.74842406  0.99676024     0.80100
N686        N  0.48993610  0.73407429  0.01094322    -0.78200
C687        C  0.48936262  0.72799529  0.04362209     0.82600
N688        N  0.51620727  0.73747052  0.06244987    -0.78100
C689        C  0.54330063  0.75207907  0.04789414     0.82700
N690        N  0.54265918  0.75737404  0.01515801    -0.79800
O691        O  0.38392682  0.67661733  0.09725077    -0.88400
C692        C  0.37369264  0.59097247  0.04941540     0.87600
Mg693      Mg  0.42535071  0.68433198  0.12836358     1.58100
O694        O  0.32172047  0.59752290  0.11808991    -0.88200
O695        O  0.33040194  0.67374158  0.10332221    -0.75500
C696        C  0.43840740  0.54332384  0.21938827     0.92700
O697        O  0.43923758  0.63037234  0.06848639    -0.75300
O698        O  0.45653141  0.56821076  0.21156002    -0.82800
Mg699      Mg  0.39478886  0.66034136  0.04864070     1.58000
C700        C  0.31186157  0.52098135  0.18639004     0.92600
O701        O  0.34795337  0.68949088  0.02422563    -0.81100
H702        H  0.28761477  0.62297014  0.14257809    -0.06400
C703        C  0.40465810  0.54512878  0.13238022     0.87500
O704        O  0.39468176  0.67014460  0.17375713    -0.75600
O705        O  0.36361352  0.61820880  0.05871929    -0.88300
O706        O  0.30502100  0.52544393  0.15565361    -0.81200
C707        C  0.28813748  0.55542659  0.04454942     0.92700
C708        C  0.31739251  0.68216871  0.01875630     0.92500
Mg709      Mg  0.36868387  0.57557315  0.18927033     1.58000
O710        O  0.40846954  0.54216612  0.21096204    -0.81100
O711        O  0.32410434  0.60513308  0.17149665    -0.75300
O712        O  0.29565464  0.58559546  0.04384163    -0.81200
O713        O  0.43473683  0.70296936  0.03931749    -0.82900
O714        O  0.47093667  0.65366602  0.19585010    -0.81200
C715        C  0.30995016  0.60867086  0.14383921     0.87000
O716        O  0.40004315  0.61674287  0.18053103    -0.88300
O717        O  0.37796596  0.55690180  0.14099533    -0.88400
O718        O  0.43191830  0.55934565  0.13852861    -0.75500
Mg719      Mg  0.31447682  0.62728643  0.07531972     1.58000
O720        O  0.29464434  0.53757735  0.06984998    -0.82900
H721        H  0.35821764  0.71167628  0.12010308    -0.06600
O722        O  0.44140987  0.63468025  0.12244023    -0.88100
H723        H  0.47441830  0.60895934  0.09674176    -0.06400
H724        H  0.37495735  0.64491877  0.21197667    -0.06600
C725        C  0.45269544  0.62416735  0.09616384     0.87000
C726        C  0.35770622  0.68857944  0.10695956     0.87500
C727        C  0.38969941  0.64381171  0.18993981     0.87600
H728        H  0.40478755  0.52233427  0.11859889    -0.06600
O729        O  0.36715637  0.56441271  0.06477703    -0.75600
Mg730      Mg  0.44931009  0.60562929  0.16694742     1.58000
H731        H  0.38915008  0.58976901  0.02785796    -0.06600
C732        C  0.45965467  0.71055623  0.05756859     0.92600
O733        O  0.46655696  0.69499594  0.15996343    -0.82800
C734        C  0.47725622  0.68343644  0.18654522     0.92600
O735        O  0.30370482  0.65780784  0.03217998    -0.82800
Mg736      Mg  0.33616722  0.54748772  0.10945752     1.58200
O737        O  0.45998626  0.70287343  0.08776374    -0.81100
O738        O  0.33603182  0.53474160  0.20008464    -0.82800
C739        C  0.24691270  0.50274377  0.48735687     0.80100
N740        N  0.25505424  0.48459224  0.46081140    -0.78200
C741        C  0.24925489  0.45198209  0.45981539     0.82600
N742        N  0.23504318  0.43718448  0.48693467    -0.78100
C743        C  0.22639741  0.45579410  0.51414451     0.82700
N744        N  0.23283300  0.48841975  0.51389504    -0.79800
O745        O  0.60948032  0.86104852  0.19722143    -0.88400
C746        C  0.56835838  0.85072352  0.10753217     0.87600
Mg747      Mg  0.63589582  0.90478873  0.21031692     1.58100
O748        O  0.64047670  0.80356651  0.11590711    -0.88200
O749        O  0.62054945  0.80837773  0.19081907    -0.75500
C750        C  0.73214139  0.93412394  0.07585736     0.92700
O751        O  0.57894608  0.91572829  0.15110925    -0.75300
O752        O  0.72162280  0.95028231  0.10110738    -0.82800
Mg753      Mg  0.56102694  0.86837840  0.17735571     1.58000
C754        C  0.71521403  0.80530050  0.04485182     0.92600
O755        O  0.53887606  0.81855922  0.20337998    -0.81100
H756        H  0.66634347  0.77113202  0.14220196    -0.06400
C757        C  0.65025486  0.89139534  0.07084053     0.87500
O758        O  0.68526941  0.87989841  0.19825438    -0.75600
O759        O  0.57703815  0.84024709  0.13480211    -0.88300
O760        O  0.68489830  0.79551821  0.04590098    -0.81200
C761        C  0.57162822  0.76693361  0.06676752     0.92700
C762        C  0.53676687  0.78828403  0.19361070     0.92500
Mg763      Mg  0.70835394  0.85931523  0.10338778     1.58000
O764        O  0.72771506  0.90329916  0.07358934    -0.81100
O765        O  0.69235496  0.81163686  0.12913198    -0.75300
O766        O  0.56801248  0.77233260  0.09726949    -0.81200
O767        O  0.54371434  0.90615110  0.21922233    -0.82900
O768        O  0.69873506  0.96037511  0.18725801    -0.81200
C769        C  0.66632770  0.79421013  0.12906838     0.87000
O770        O  0.69405873  0.88808665  0.14553519    -0.88300
O771        O  0.66086543  0.86477755  0.08125161    -0.88400
O772        O  0.65292875  0.91812545  0.08711743    -0.75500
Mg773      Mg  0.59644610  0.79202989  0.14219592     1.58000
O774        O  0.59786908  0.77659005  0.05171527    -0.82900
H775        H  0.63343762  0.83481678  0.23118192    -0.06600
O776        O  0.63164297  0.92325403  0.16125259    -0.88100
H777        H  0.60516113  0.95488126  0.13451885    -0.06400
H778        H  0.72665756  0.86546408  0.17454749    -0.06600
C779        C  0.60542845  0.93235661  0.14865896     0.87000
C780        C  0.62116811  0.83486385  0.20759480     0.87500
C781        C  0.70318446  0.87772530  0.17270562     0.87600
H782        H  0.63773831  0.89186236  0.04737335    -0.06600
O783        O  0.58571754  0.84677569  0.08177052    -0.75600
Mg784      Mg  0.67635096  0.93670938  0.13582216     1.58000
H785        H  0.54558985  0.86420696  0.10563764    -0.06600
C786        C  0.55982179  0.93174549  0.22891875     0.92600
O787        O  0.66241476  0.94910810  0.22686858    -0.82800
C788        C  0.68750212  0.96430973  0.21690025     0.92600
O789        O  0.55299390  0.77760366  0.16953392    -0.82800
Mg790      Mg  0.63400688  0.82077367  0.06661044     1.58200
O791        O  0.59065276  0.93326222  0.22544867    -0.81100
O792        O  0.72532045  0.82930473  0.06184396    -0.82800
C793        C  0.76518964  0.74291636  0.99990551     0.80100
N794        N  0.79274336  0.76047985  0.99277599    -0.78200
C795        C  0.79520523  0.79233009  0.00149206     0.82600
N796        N  0.76918145  0.80669601  0.01718301    -0.78100
C797        C  0.74129771  0.78936328  0.02464242     0.82700
N798        N  0.73962068  0.75725393  0.01604062    -0.79800
O799        O  0.85898342  0.19131910  0.61482238    -0.88400
C800        C  0.85072424  0.10160323  0.57414458     0.87600
Mg801      Mg  0.90194543  0.20418387  0.64229393     1.58100
O802        O  0.80386688  0.11039256  0.64630308    -0.88200
O803        O  0.80625000  0.18583769  0.62485218    -0.75500
C804        C  0.93389940  0.06882348  0.73780304     0.92700
O805        O  0.91487835  0.14635980  0.58557722    -0.75300
O806        O  0.94943771  0.09491058  0.72843933    -0.82800
Mg807      Mg  0.86713078  0.17148354  0.56693861     1.58000
C808        C  0.80589993  0.03815621  0.72062006     0.92600
O809        O  0.81712537  0.19551272  0.54353434    -0.81100
H810        H  0.77113210  0.13601007  0.67246109    -0.06400
C811        C  0.89150629  0.06503760  0.65623463     0.87500
O812        O  0.87592036  0.19095389  0.69071883    -0.75600
O813        O  0.83968247  0.12873834  0.58255202    -0.88300
O814        O  0.79544043  0.04020959  0.69058955    -0.81200
C815        C  0.76815933  0.06074983  0.57785459     0.92700
C816        C  0.78683871  0.18602915  0.54049607     0.92500
Mg817      Mg  0.85904986  0.09619973  0.71449460     1.58000
O818        O  0.90322239  0.06613503  0.73307480    -0.81100
O819        O  0.81110376  0.12187722  0.69875761    -0.75300
O820        O  0.77318169  0.09130458  0.57534623    -0.81200
O821        O  0.90288805  0.21506534  0.55122892    -0.82900
O822        O  0.95613585  0.18131052  0.70828030    -0.81200
C823        C  0.79419215  0.12286020  0.67238596     0.87000
O824        O  0.88655246  0.13882655  0.70095237    -0.88300
O825        O  0.86485703  0.07534397  0.66671821    -0.88400
O826        O  0.91812957  0.08136518  0.65924401    -0.75500
Mg827      Mg  0.79130981  0.13631704  0.60190714     1.58000
O828        O  0.77760280  0.04482205  0.60359200    -0.82900
H829        H  0.83265654  0.22656222  0.63667652    -0.06600
O830        O  0.92141500  0.15566141  0.63858420    -0.88100
H831        H  0.95388544  0.13004938  0.61212272    -0.06400
H832        H  0.86149812  0.16730156  0.73216014    -0.06600
C833        C  0.93112905  0.14368069  0.61229880     0.87000
C834        C  0.83275237  0.20246796  0.62542445     0.87500
C835        C  0.87461386  0.16566245  0.70915088     0.87600
H836        H  0.89209892  0.04162656  0.64355551    -0.06600
O837        O  0.84724517  0.07586460  0.59169295    -0.75600
Mg838      Mg  0.93516951  0.13010136  0.68364598     1.58000
H839        H  0.86440660  0.09984651  0.55145864    -0.06600
C840        C  0.92861538  0.22575991  0.56645721     0.92600
O841        O  0.94419741  0.21983797  0.67094734    -0.82800
C842        C  0.95880278  0.21089658  0.69678465     0.92600
O843        O  0.77542648  0.16226994  0.55684691    -0.82800
Mg844      Mg  0.82111154  0.06066343  0.63986600     1.58200
O845        O  0.93190034  0.22151624  0.59723064    -0.81100
O846        O  0.83050616  0.05411561  0.73061008    -0.82800
C847        C  0.74317311  0.00727521  0.77890415     0.80100
N848        N  0.76212310  0.99499790  0.80347130    -0.78200
C849        C  0.79502659  0.99440797  0.80012598     0.82600
N850        N  0.80867351  0.00637648  0.77185548    -0.78100
C851        C  0.78980377  0.01883946  0.74701224     0.82700
N852        N  0.75688809  0.01942922  0.75088600    -0.79800
O853        O  0.88683625  0.81972937  0.90731517    -0.88400
C854        C  0.87765814  0.90453350  0.95860841     0.87600
Mg855      Mg  0.92801052  0.81077716  0.87571843     1.58100
O856        O  0.82445761  0.89895741  0.89060351    -0.88200
O857        O  0.83306648  0.82317216  0.90433341    -0.75500
C858        C  0.94204031  0.95469394  0.78986392     0.92700
O859        O  0.94262423  0.86424043  0.93728228    -0.75300
O860        O  0.96031658  0.92955991  0.79643903    -0.82800
Mg861      Mg  0.89762563  0.83460839  0.95659359     1.58000
C862        C  0.81561936  0.97534753  0.82316441     0.92600
O863        O  0.84996044  0.80398137  0.97821113    -0.81100
H864        H  0.79103968  0.87305671  0.86540435    -0.06400
C865        C  0.90885869  0.94977556  0.87720993     0.87500
O866        O  0.89791658  0.82605166  0.83037824    -0.75600
O867        O  0.86763051  0.87778049  0.94794759    -0.88300
O868        O  0.80843067  0.97037822  0.85370302    -0.81200
C869        C  0.79028255  0.94012309  0.96497792     0.92700
C870        C  0.82058202  0.81338516  0.98599598     0.92500
Mg871      Mg  0.87248462  0.92124492  0.81964379     1.58000
O872        O  0.91223978  0.95528171  0.79872838    -0.81100
O873        O  0.82786727  0.89126705  0.83718350    -0.75300
O874        O  0.79914729  0.91041060  0.96666608    -0.81200
O875        O  0.93682583  0.79230671  0.96620656    -0.82900
O876        O  0.97576928  0.84260575  0.80960229    -0.81200
C877        C  0.81326487  0.88762258  0.86459008     0.87000
O878        O  0.90377365  0.87964078  0.82655438    -0.88300
O879        O  0.88178614  0.93887025  0.86836240    -0.88400
O880        O  0.93580246  0.93551783  0.86997129    -0.75500
Mg881      Mg  0.81820833  0.86953794  0.93357816     1.58000
O882        O  0.79724590  0.95763041  0.93946020    -0.82900
H883        H  0.85945619  0.78582691  0.88436300    -0.06600
O884        O  0.94563366  0.85991304  0.88317001    -0.88100
H885        H  0.97865391  0.88505121  0.90968819    -0.06400
H886        H  0.87912402  0.85329600  0.79305212    -0.06600
C887        C  0.95664677  0.87013660  0.90980233     0.87000
C888        C  0.85998797  0.80844988  0.89835689     0.87500
C889        C  0.89343644  0.85317753  0.81545599     0.87600
H890        H  0.90964399  0.97191211  0.89200255    -0.06600
O891        O  0.87081196  0.93166752  0.94451393    -0.75600
Mg892      Mg  0.95336653  0.89025863  0.83980055     1.58000
H893        H  0.89310740  0.90483723  0.98027655    -0.06600
C894        C  0.96154662  0.78573586  0.94763270     0.92600
O895        O  0.96952888  0.79886971  0.84240000    -0.82800
C896        C  0.98151004  0.81205838  0.81691891     0.92600
O897        O  0.80972174  0.84102431  0.97770158    -0.82800
Mg898      Mg  0.83959142  0.94852479  0.89989078     1.58200
O899        O  0.96098490  0.79269062  0.91723739    -0.81100
O900        O  0.84022027  0.96236518  0.80973756    -0.82800
O901        O  0.13739817  0.65488506  0.92506346    -0.88400
C902        C  0.12720584  0.70302042  0.83900340     0.87600
Mg903      Mg  0.17927058  0.62465234  0.93467290     1.58100
O904        O  0.07617270  0.63340254  0.84499139    -0.88200
O905        O  0.08387322  0.64870559  0.92117657    -0.75500
C906        C  0.19679579  0.53580868  0.79327570     0.92700
O907        O  0.19274831  0.68472152  0.87953263    -0.75300
O908        O  0.21570106  0.54336216  0.81766968    -0.82800
Mg909      Mg  0.14750787  0.70394943  0.90836896     1.58000
C910        C  0.06919455  0.56367970  0.76930815     0.92600
O911        O  0.10019832  0.72674717  0.93730558    -0.81100
H912        H  0.04203921  0.60814808  0.86972308    -0.06400
C913        C  0.16108102  0.62090013  0.79543218     0.87500
O914        O  0.15039436  0.57804980  0.92013702    -0.75600
O915        O  0.11708535  0.69300451  0.86593128    -0.88300
O916        O  0.06227327  0.59441553  0.77396833    -0.81200
C917        C  0.04197886  0.70630009  0.80153430     0.92700
C918        C  0.06978712  0.73223882  0.92968623     0.92500
Mg919      Mg  0.12544328  0.56300052  0.82489832     1.58000
O920        O  0.16660179  0.54299068  0.79383483    -0.81100
O921        O  0.07964457  0.58004642  0.85306103    -0.75300
O922        O  0.04866035  0.70668851  0.83193798    -0.81200
O923        O  0.18690647  0.71584740  0.95050294    -0.82900
O924        O  0.22767524  0.55859058  0.90537374    -0.81200
C925        C  0.06475644  0.60738698  0.85603141     0.87000
O926        O  0.15621117  0.57249103  0.86670851    -0.88300
O927        O  0.13421218  0.61153851  0.80634449    -0.88400
O928        O  0.18814231  0.61522786  0.81024246    -0.75500
Mg929      Mg  0.06795396  0.67623626  0.87436695     1.58000
O930        O  0.04989500  0.68144544  0.78350948    -0.82900
H931        H  0.11101918  0.63173905  0.95943636    -0.06600
O932        O  0.19661575  0.63091771  0.88549413    -0.88100
H933        H  0.22935725  0.65713073  0.85988217    -0.06400
H934        H  0.13218913  0.53947942  0.89408089    -0.06600
C935        C  0.20728289  0.65735698  0.87460408     0.87000
C936        C  0.11094737  0.64497411  0.93641847     0.87500
C937        C  0.14607489  0.56215360  0.89348802     0.87600
H938        H  0.16153073  0.63493361  0.77286358    -0.06600
O939        O  0.12153332  0.68770147  0.81221255    -0.75600
Mg940      Mg  0.20593238  0.58695697  0.85646816     1.58000
H941        H  0.14196200  0.72514490  0.83829961    -0.06600
C942        C  0.21141447  0.69756792  0.95871904     0.92600
O943        O  0.22180207  0.59381592  0.94725493    -0.82800
C944        C  0.23332956  0.56752790  0.93551059     0.92600
O945        O  0.05665442  0.71992812  0.90437616    -0.82800
Mg946      Mg  0.09192418  0.64203129  0.79528332     1.58200
O947        O  0.21107639  0.66698076  0.95272778    -0.81100
O948        O  0.09398939  0.55031997  0.78230377    -0.82800
C949        C  0.01825610  0.77252752  0.74286171     0.80100
N950        N  0.02902400  0.74339463  0.75525315    -0.78200
C951        C  0.02640508  0.73673147  0.78768893     0.82600
N952        N  0.01231319  0.75990314  0.80775594    -0.78100
C953        C  0.00087601  0.78926765  0.79546067     0.82700
N954        N  0.00382759  0.79519520  0.76282250    -0.79800
C955        C  0.99314330  0.52046564  0.74661207     0.80100
N956        N  0.00427851  0.49219540  0.73255397    -0.78200
C957        C  0.03693235  0.48772570  0.72800166     0.82600
N958        N  0.05820026  0.51197677  0.73821778    -0.78100
C959        C  0.04682228  0.54077007  0.75168834     0.82700
N960        N  0.01424707  0.54459234  0.75566817    -0.79800
C961        C  0.25280376  0.50975419  0.72556364     0.80100
N962        N  0.24166629  0.52026468  0.75537828    -0.78200
C963        C  0.20916104  0.52030504  0.76214271     0.82600
N964        N  0.18779570  0.50909691  0.73842861    -0.78100
C965        C  0.19900054  0.49875610  0.70824782     0.82700
N966        N  0.23141903  0.49963982  0.70218855    -0.79800
C967        C  0.74889850  0.99613673  0.51640232     0.80100
N968        N  0.73526347  0.01340943  0.49135467    -0.78200
C969        C  0.73014753  0.04601993  0.49438759     0.82600
N970        N  0.73930735  0.06139941  0.52319782    -0.78100
C971        C  0.75350626  0.04398646  0.54850335     0.82700
N972        N  0.75822375  0.01137852  0.54458072    -0.79800
C973        C  0.98043895  0.25139596  0.49620950     0.80100
N974        N  0.95520783  0.23994987  0.51453082    -0.78200
C975        C  0.95621309  0.24170729  0.54769057     0.82600
N976        N  0.98367695  0.25530390  0.56249383    -0.78100
C977        C  0.00954355  0.26680946  0.54366827     0.82700
N978        N  0.00748498  0.26437576  0.51061596    -0.79800
C979        C  0.99060655  0.27038143  0.75879934     0.80100
N980        N  0.00033925  0.29554580  0.73922392    -0.78200
C981        C  0.99890187  0.29239452  0.70636505     0.82600
N982        N  0.98755266  0.26360997  0.69331249    -0.78100
C983        C  0.97725246  0.23818104  0.71267169     0.82700
N984        N  0.97862183  0.24180413  0.74575322    -0.79800
C985        C  0.50620397  0.73163398  0.25781452     0.80100
N986        N  0.51765752  0.75958740  0.24338761    -0.78200
C987        C  0.51749084  0.76221891  0.21030332     0.82600
N988        N  0.50620945  0.73620729  0.19216995    -0.78100
C989        C  0.49490493  0.70802969  0.20667012     0.82700
N990        N  0.49504612  0.70591840  0.23967076    -0.79800
C991        C  0.75426986  0.99756404  0.26876565     0.80100
N992        N  0.73766160  0.98554993  0.24242354    -0.78200
C993        C  0.70460157  0.98408225  0.24276780     0.82600
N994        N  0.68825232  0.99500735  0.27036713    -0.78100
C995        C  0.70519037  0.00774696  0.29684157     0.82700
N996        N  0.73818990  0.00883755  0.29555194    -0.79800
C997        C  0.27805364  0.75590129  0.98321001     0.80100
N998        N  0.30080421  0.73556615  0.99659249    -0.78200
C999        C  0.29494806  0.70300838  0.99879361     0.82600
N1000       N  0.26543985  0.69085992  0.98751789    -0.78100
C1001       C  0.24216916  0.71122868  0.97402034     0.82700
N1002       N  0.24875747  0.74384629  0.97230560    -0.79800
C1003       C  0.73786438  0.25558468  0.50994268     0.80100
N1004       N  0.76339684  0.23745502  0.52122821    -0.78200
C1005       C  0.76210884  0.20438196  0.52076191     0.82600
N1006       N  0.73423666  0.18933557  0.50877050    -0.78100
C1007       C  0.70857937  0.20758897  0.49641433     0.82700
N1008       N  0.71081603  0.24073868  0.49718106    -0.79800
C1009       C  0.24093566  0.48038214  0.22653878     0.80100
N1010       N  0.25420434  0.47078092  0.25577521    -0.78200
C1011       C  0.28642893  0.47597164  0.26192276     0.82600
N1012       N  0.30502242  0.49073566  0.23821099    -0.78100
C1013       C  0.29173646  0.50083899  0.20901556     0.82700
N1014       N  0.25945773  0.49578668  0.20343276    -0.79800
C1015       C  0.25538519  0.49475249  0.98499250     0.80100
N1016       N  0.24659150  0.51358648  0.95887299    -0.78200
C1017       C  0.25048719  0.54659851  0.96016048     0.82600
N1018       N  0.26324294  0.56045103  0.98834358    -0.78100
C1019       C  0.27268733  0.54125636  0.01443870     0.82700
N1020       N  0.26862927  0.50847044  0.01229917    -0.79800
C1021       C  0.49629901  0.99501360  0.24725524     0.80100
N1022       N  0.51405757  0.01958023  0.26104853    -0.78200
C1023       C  0.54648503  0.01585403  0.26625483     0.82600
N1024       N  0.56117571  0.98674849  0.25711236    -0.78100
C1025       C  0.54332442  0.96182174  0.24263475     0.82700
N1026       N  0.51069346  0.96630073  0.23799774    -0.79800
C1027       C  0.50562679  0.24452231  0.24742655     0.80100
N1028       N  0.49039233  0.26881295  0.26449520    -0.78200
C1029       C  0.48511030  0.26551708  0.29709820     0.82600
N1030       N  0.49538840  0.23711886  0.31244733    -0.78100
C1031       C  0.51111509  0.21268478  0.29515683     0.82700
N1032       N  0.51610517  0.21689957  0.26273043    -0.79800
C1033       C  0.22458970  0.24255114  0.48712316     0.80100
N1034       N  0.25341371  0.25675685  0.47764217    -0.78200
C1035       C  0.25827761  0.28933380  0.48189246     0.82600
N1036       N  0.23351581  0.30754375  0.49527742    -0.78100
C1037       C  0.20448101  0.29352771  0.50474683     0.82700
N1038       N  0.20012512  0.26094066  0.50036780    -0.79800
C1039       C  0.02630449  0.75565760  0.00539157     0.80100
N1040       N  0.05065832  0.74692690  0.98442609    -0.78200
C1041       C  0.04667121  0.74987232  0.95168448     0.82600
N1042       N  0.01736036  0.76165820  0.93986143    -0.78100
C1043       C  0.99261352  0.77092378  0.96075124     0.82700
N1044       N  0.99724132  0.76731374  0.99357709    -0.79800
C1045       C  0.74682903  0.00120533  0.01632131     0.80100
N1046       N  0.73879150  0.98413798  0.04373068    -0.78200
C1047       C  0.74643156  0.95198220  0.04679041     0.82600
N1048       N  0.76267949  0.93664291  0.02113600    -0.78100
C1049       C  0.77173872  0.95439739  0.99352799     0.82700
N1050       N  0.76367786  0.98646433  0.99187264    -0.79800
C1051       C  0.00247512  0.01097692  0.75150598     0.80100
N1052       N  0.98485070  0.03827452  0.74465151    -0.78200
C1053       C  0.95234904  0.03951134  0.75100283     0.82600
N1054       N  0.93746630  0.01215744  0.76487837    -0.78100
C1055       C  0.95581603  0.98449076  0.77263960     0.82700
N1056       N  0.98821426  0.98450705  0.76566169    -0.79800
C1057       C  0.65393062  0.51914181  0.24380625    -0.12000
C1058       C  0.63845208  0.50473812  0.27090233     0.10600
C1059       C  0.65678374  0.49128901  0.29704986    -0.03800
C1060       C  0.69089146  0.49187629  0.29462976    -0.06500
C1061       C  0.70646170  0.50469752  0.26673786    -0.17300
C1062       C  0.68811900  0.51965627  0.24133496     0.01600
C1063       C  0.60300639  0.50083693  0.26938847     0.11600
C1064       C  0.64045299  0.47499053  0.32643750     0.62200
H1065       H  0.70567312  0.48071224  0.31377341     0.11600
C1066       C  0.70431470  0.53607080  0.21200787     0.54300
H1067       H  0.63892350  0.52886219  0.22405252     0.07400
C1068       C  0.58155337  0.52672565  0.27745681    -0.06400
C1069       C  0.54791285  0.52096202  0.27460107    -0.07100
C1070       C  0.53579589  0.49073494  0.26304291    -0.16700
C1071       C  0.55748075  0.46480777  0.25485135    -0.02300
C1072       C  0.59110883  0.47053890  0.25820412    -0.09900
C1073       C  0.59415239  0.56038877  0.28787918     0.64400
H1074       H  0.53072659  0.54040153  0.28051656     0.09900
C1075       C  0.54561474  0.43184579  0.24159901     0.62800
H1076       H  0.60861208  0.45151804  0.25184410     0.07200
F1077       F  0.68208814  0.55462688  0.19412550    -0.20200
F1078       F  0.71731261  0.51246415  0.19133039    -0.16500
F1079       F  0.72910992  0.55687850  0.22257823    -0.20000
F1080       F  0.62498791  0.44633482  0.31656802    -0.23300
F1081       F  0.61748072  0.49587612  0.34013373    -0.24800
F1082       F  0.66301799  0.46704392  0.35065408    -0.18800
F1083       F  0.57142528  0.41218855  0.23143281    -0.21300
F1084       F  0.52515577  0.43667482  0.21484975    -0.22500
F1085       F  0.52883865  0.41502696  0.26588101    -0.19600
F1086       F  0.56878162  0.58132421  0.29646855    -0.19700
F1087       F  0.61121405  0.57464814  0.26222128    -0.23600
F1088       F  0.61483817  0.55746131  0.31468464    -0.25200
C1089       C  0.71766345  0.34235976  0.53519091    -0.12000
C1090       C  0.74684737  0.35799466  0.52630610     0.10600
C1091       C  0.77349432  0.34015695  0.51332244    -0.03800
C1092       C  0.76901094  0.30667336  0.50732857    -0.06500
C1093       C  0.73909047  0.29110526  0.51443641    -0.17300
C1094       C  0.71305211  0.30883809  0.52926925     0.01600
C1095       C  0.74740398  0.39371897  0.52708082     0.11600
C1096       C  0.80630216  0.35650540  0.50600165     0.62200
H1097       H  0.78888014  0.29230280  0.49700264     0.11600
C1098       C  0.68076768  0.29280892  0.53908438     0.54300
H1099       H  0.69801213  0.35709074  0.54543530     0.07400
C1100       C  0.73543187  0.41185522  0.50006997    -0.06400
C1101       C  0.73978970  0.44577730  0.50042833    -0.07100
C1102       C  0.75474282  0.46158508  0.52714851    -0.16700
C1103       C  0.76451100  0.44363027  0.55531853    -0.02300
C1104       C  0.76088956  0.40940189  0.55458454    -0.09900
C1105       C  0.71844349  0.39541928  0.47098282     0.64400
H1106       H  0.73144918  0.46035289  0.47975853     0.09900
C1107       C  0.77924794  0.46017766  0.58545423     0.62800
H1108       H  0.76889988  0.39450196  0.57515006     0.07200
F1109       F  0.66358066  0.28350200  0.51123141    -0.20200
F1110       F  0.66104015  0.31406550  0.55685150    -0.16500
F1111       F  0.68668680  0.26551840  0.55849566    -0.20000
F1112       F  0.81931808  0.36933823  0.53470639    -0.23300
F1113       F  0.80222494  0.38164933  0.48350573    -0.24800
F1114       F  0.82878191  0.33446523  0.49316406    -0.18800
F1115       F  0.79038176  0.43744165  0.60819462    -0.21300
F1116       F  0.75576062  0.47936956  0.60071078    -0.22500
F1117       F  0.80555582  0.47970128  0.57635715    -0.19600
F1118       F  0.70886467  0.41803223  0.44743033    -0.19700
F1119       F  0.69061537  0.37907190  0.48156749    -0.23600
F1120       F  0.73938255  0.37315915  0.45620598    -0.25200
C1121       C  0.83847811  0.55647914  0.77576927    -0.12000
C1122       C  0.85670259  0.52734617  0.77526527     0.10600
C1123       C  0.84140135  0.49660751  0.78072624    -0.03800
C1124       C  0.80716645  0.49569768  0.78262578    -0.06500
C1125       C  0.78866422  0.52446999  0.77945492    -0.17300
C1126       C  0.80419659  0.55555405  0.77803843     0.01600
C1127       C  0.89162083  0.52925425  0.76725924     0.11600
C1128       C  0.86108232  0.46495601  0.78328865     0.62200
H1129       H  0.79448243  0.47234348  0.78476188     0.11600
C1130       C  0.78470330  0.58732960  0.77913614     0.54300
H1131       H  0.85119493  0.57973257  0.77286321     0.07400
C1132       C  0.90250420  0.52800331  0.73428504    -0.06400
C1133       C  0.93620181  0.52501579  0.72846229    -0.07100
C1134       C  0.95855158  0.52410090  0.75454146    -0.16700
C1135       C  0.94771190  0.52669967  0.78752700    -0.02300
C1136       C  0.91401719  0.52959308  0.79328124    -0.09900
C1137       C  0.87863497  0.52988333  0.70558614     0.64400
H1138       H  0.94544611  0.52348049  0.70354487     0.09900
C1139       C  0.97131452  0.52503911  0.81650207     0.62800
H1140       H  0.90467679  0.53103256  0.81816761     0.07200
F1141       F  0.76744544  0.59139727  0.75014694    -0.20200
F1142       F  0.80495054  0.61441120  0.78339933    -0.16500
F1143       F  0.76288818  0.58643198  0.80516756    -0.20000
F1144       F  0.88346224  0.46737293  0.80877488    -0.23300
F1145       F  0.87777056  0.45926499  0.75427675    -0.24800
F1146       F  0.84115112  0.43804108  0.78941848    -0.18800
F1147       F  0.99094511  0.55280816  0.81714321    -0.21300
F1148       F  0.99088282  0.49737698  0.81385570    -0.22500
F1149       F  0.95484318  0.52329511  0.84620817    -0.19600
F1150       F  0.89458976  0.52774124  0.67563098    -0.19700
F1151       F  0.86209767  0.55954229  0.70655343    -0.23600
F1152       F  0.85612285  0.50445523  0.70726376    -0.25200
C1153       C  0.41168383  0.52026558  0.69698895    -0.12000
C1154       C  0.39185946  0.50220841  0.71831111     0.10600
C1155       C  0.40570314  0.48266248  0.74331208    -0.03800
C1156       C  0.43938439  0.48540497  0.74901636    -0.06500
C1157       C  0.45924486  0.50620644  0.72983372    -0.17300
C1158       C  0.44562320  0.52234530  0.70195816     0.01600
C1159       C  0.35644398  0.50687943  0.71629590     0.11600
C1160       C  0.38482925  0.45967165  0.76416164     0.62200
H1161       H  0.45013564  0.47216415  0.76943760     0.11600
C1162       C  0.46609735  0.54172562  0.67748302     0.54300
H1163       H  0.40004659  0.53411655  0.67742824     0.07400
C1164       C  0.34114797  0.53285143  0.73344537    -0.06400
C1165       C  0.30697483  0.53365529  0.73415610    -0.07100
C1166       C  0.28814103  0.50903096  0.71905721    -0.16700
C1167       C  0.30364964  0.48371535  0.70049349    -0.02300
C1168       C  0.33797852  0.48357975  0.69912348    -0.09900
C1169       C  0.36080210  0.55894414  0.75176165     0.64400
H1170       H  0.29463270  0.55313781  0.74743067     0.09900
C1171       C  0.28481675  0.45608799  0.68349342     0.62800
H1172       H  0.35089191  0.46447661  0.68583663     0.07200
F1173       F  0.44875597  0.54795287  0.64883471    -0.20200
F1174       F  0.49383504  0.52406495  0.66898861    -0.16500
F1175       F  0.47512442  0.57165720  0.69093825    -0.20000
F1176       F  0.36997899  0.43647180  0.74415573    -0.23300
F1177       F  0.36083147  0.47719418  0.78057250    -0.24800
F1178       F  0.40342302  0.44310444  0.78734846    -0.18800
F1179       F  0.30561950  0.43246897  0.67058962    -0.21300
F1180       F  0.26651068  0.46865516  0.65774898    -0.22500
F1181       F  0.26432333  0.44053168  0.70570391    -0.19600
F1182       F  0.34067437  0.58151793  0.76732447    -0.19700
F1183       F  0.38052071  0.57590957  0.72994848    -0.23600
F1184       F  0.38029167  0.54435947  0.77546745    -0.25200
C1185       C  0.74818213  0.90463492  0.52888651    -0.12000
C1186       C  0.76428298  0.89457126  0.50028477     0.10600
C1187       C  0.77473692  0.91752109  0.47657579    -0.03800
C1188       C  0.76974460  0.95085487  0.48320976    -0.06500
C1189       C  0.75434565  0.96107470  0.51230317    -0.17300
C1190       C  0.74298151  0.93784744  0.53553791     0.01600
C1191       C  0.76786505  0.85930473  0.49561970     0.11600
C1192       C  0.79046783  0.90678140  0.44447324     0.62200
H1193       H  0.77762283  0.96925287  0.46564759     0.11600
C1194       C  0.72448894  0.94770882  0.56646655     0.54300
H1195       H  0.73972779  0.88602304  0.54596544     0.07400
C1196       C  0.79192253  0.84138041  0.51304332    -0.06400
C1197       C  0.78992976  0.80714877  0.51253621    -0.07100
C1198       C  0.76405787  0.79124121  0.49639894    -0.16700
C1199       C  0.74090992  0.80904872  0.47766038    -0.02300
C1200       C  0.74329570  0.84328310  0.47760203    -0.09900
C1201       C  0.81818624  0.85825865  0.53365496     0.64400
H1202       H  0.80733477  0.79256453  0.52645621     0.09900
C1203       C  0.71385441  0.79213008  0.45814923     0.62800
H1204       H  0.72494868  0.85792567  0.46502777     0.07200
F1205       F  0.74527354  0.96424415  0.58772576    -0.20200
F1206       F  0.71215842  0.92062490  0.58301780    -0.16500
F1207       F  0.69829708  0.96776116  0.55831942    -0.20000
F1208       F  0.76826725  0.88854349  0.42624677    -0.23300
F1209       F  0.81785098  0.88774376  0.45076294    -0.24800
F1210       F  0.80019393  0.93342275  0.42565247    -0.18800
F1211       F  0.69123968  0.77821660  0.47930362    -0.21300
F1212       F  0.72719296  0.76782114  0.43847183    -0.22500
F1213       F  0.69732833  0.81400393  0.43798243    -0.19600
F1214       F  0.84116776  0.83607773  0.54535531    -0.19700
F1215       F  0.80387232  0.87356948  0.56037195    -0.23600
F1216       F  0.83454667  0.88149896  0.51506906    -0.25200
C1217       C  0.49798387  0.70533889  0.41571258    -0.12000
C1218       C  0.51679005  0.72603212  0.39576148     0.10600
C1219       C  0.53472574  0.75271010  0.40913081    -0.03800
C1220       C  0.53329185  0.75769937  0.44295943    -0.06500
C1221       C  0.51315051  0.73813215  0.46259683    -0.17300
C1222       C  0.49546621  0.71128516  0.44941385     0.01600
C1223       C  0.51229004  0.72324125  0.36051573     0.11600
C1224       C  0.55354864  0.77690403  0.38767052     0.62200
H1225       H  0.54652203  0.77796388  0.45420888     0.11600
C1226       C  0.47391785  0.68951256  0.47072343     0.54300
H1227       H  0.48400307  0.68566296  0.40434527     0.07400
C1228       C  0.53294598  0.70377302  0.34073075    -0.06400
C1229       C  0.53001618  0.70699345  0.30667872    -0.07100
C1230       C  0.50691731  0.72852810  0.29304615    -0.16700
C1231       C  0.48449256  0.74580547  0.31288522    -0.02300
C1232       C  0.48749130  0.74265276  0.34679716    -0.09900
C1233       C  0.55727322  0.67965066  0.35552829     0.64400
H1234       H  0.54592294  0.69315173  0.29043283     0.09900
C1235       C  0.45772918  0.76729008  0.29826842     0.62800
H1236       H  0.47151311  0.75646197  0.36301208     0.07200
F1237       F  0.49248975  0.67599334  0.49578491    -0.20200
F1238       F  0.45996799  0.66402875  0.45287225    -0.16500
F1239       F  0.44875398  0.70790567  0.48415456    -0.20000
F1240       F  0.53201697  0.79349032  0.36729981    -0.23300
F1241       F  0.57627063  0.76045155  0.36862643    -0.24800
F1242       F  0.57024205  0.80007977  0.40628060    -0.18800
F1243       F  0.43866790  0.74887188  0.27688772    -0.21300
F1244       F  0.47167960  0.79326012  0.28136755    -0.22500
F1245       F  0.43733896  0.78012925  0.32225916    -0.19600
F1246       F  0.57539642  0.66375199  0.33153425    -0.19700
F1247       F  0.54043311  0.65612203  0.37334702    -0.23600
F1248       F  0.57892407  0.69576698  0.37622126    -0.25200
C1249       C  0.48207726  0.75964566  0.84436728    -0.12000
C1250       C  0.50519011  0.77943480  0.86053322     0.10600
C1251       C  0.52668850  0.79997838  0.84251434    -0.03800
C1252       C  0.52546181  0.79850705  0.80813417    -0.06500
C1253       C  0.50360911  0.77721968  0.79219600    -0.17300
C1254       C  0.48041490  0.75874170  0.81011306     0.01600
C1255       C  0.50889045  0.77456961  0.89599429     0.11600
C1256       C  0.55141606  0.82235590  0.85944318     0.62200
H1257       H  0.54252117  0.81275595  0.79347151     0.11600
C1258       C  0.45403509  0.73847024  0.79301849     0.54300
H1259       H  0.46614642  0.74397214  0.85884317     0.07400
C1260       C  0.48547316  0.78621831  0.91874416    -0.06400
C1261       C  0.48889447  0.77691489  0.95168394    -0.07100
C1262       C  0.51527974  0.75737355  0.96207663    -0.16700
C1263       C  0.53945851  0.74690968  0.93948491    -0.02300
C1264       C  0.53519748  0.75501154  0.90637743    -0.09900
C1265       C  0.45719657  0.80824850  0.90830542     0.64400
H1266       H  0.47100792  0.78489072  0.96969389     0.09900
C1267       C  0.56912190  0.72682705  0.94999714     0.62800
H1268       H  0.55230204  0.74597941  0.88810951     0.07200
F1269       F  0.43230624  0.72467399  0.81523823    -0.20200
F1270       F  0.46818803  0.71324994  0.77521276    -0.16500
F1271       F  0.43631617  0.75842100  0.77193628    -0.20000
F1272       F  0.57552442  0.80377066  0.87446483    -0.23300
F1273       F  0.53586216  0.84134006  0.88291512    -0.24800
F1274       F  0.56650843  0.84338503  0.83736276    -0.18800
F1275       F  0.58777088  0.71690576  0.92334680    -0.21300
F1276       F  0.55899335  0.69897676  0.96667053    -0.22500
F1277       F  0.58910125  0.74553532  0.97022258    -0.19600
F1278       F  0.43965605  0.81971148  0.93508761    -0.19700
F1279       F  0.43578603  0.79106877  0.88823334    -0.23600
F1280       F  0.46912865  0.83519124  0.89137200    -0.25200
C1281       C  0.72568582  0.08529281  0.98335460    -0.12000
C1282       C  0.73040086  0.10392629  0.01181586     0.10600
C1283       C  0.73590655  0.08867647  0.04245615    -0.03800
C1284       C  0.74029844  0.05466785  0.04288363    -0.06500
C1285       C  0.73846922  0.03604732  0.01388787    -0.17300
C1286       C  0.72928668  0.05114563  0.98378454     0.01600
C1287       C  0.73006007  0.13960112  0.00855409     0.11600
C1288       C  0.73764446  0.10823948  0.07428648     0.62200
H1289       H  0.74628352  0.04251653  0.06580032     0.11600
C1290       C  0.72280366  0.03181024  0.95238637     0.54300
H1291       H  0.72018845  0.09794163  0.96056109     0.07400
C1292       C  0.75816422  0.15706566  0.99812882    -0.06400
C1293       C  0.75624420  0.19130948  0.99639920    -0.07100
C1294       C  0.72731764  0.20794420  0.00478470    -0.16700
C1295       C  0.69918686  0.19019840  0.01538021    -0.02300
C1296       C  0.70099784  0.15592840  0.01627951    -0.09900
C1297       C  0.78982281  0.13960026  0.98882356     0.64400
H1298       H  0.77733191  0.20542623  0.98833323     0.09900
C1299       C  0.66788260  0.20689437  0.02703175     0.62800
H1300       H  0.67986831  0.14144313  0.02357372     0.07200
F1301       F  0.75211981  0.02138494  0.93886200    -0.20200
F1302       F  0.70681263  0.05074848  0.92905600    -0.16500
F1303       F  0.70307612  0.00488953  0.95906008    -0.20000
F1304       F  0.70820259  0.12428130  0.07948855    -0.23300
F1305       F  0.76267122  0.13118610  0.07260301    -0.24800
F1306       F  0.74343481  0.08821405  0.10119237    -0.18800
F1307       F  0.65156546  0.22063245  0.00058195    -0.21300
F1308       F  0.67536178  0.23110462  0.04979146    -0.22500
F1309       F  0.64665804  0.18487675  0.04199068    -0.19600
F1310       F  0.81469776  0.16162257  0.98138457    -0.19700
F1311       F  0.78453265  0.12001307  0.96151919    -0.23600
F1312       F  0.80044199  0.12014833  0.01458868    -0.25200
C1313       C  0.08202361  0.00674609  0.70523871    -0.12000
C1314       C  0.10419692  0.00935145  0.73140197     0.10600
C1315       C  0.09305745  0.01232938  0.76419429    -0.03800
C1316       C  0.05924842  0.01231436  0.76978719    -0.06500
C1317       C  0.03711394  0.01005633  0.74363991    -0.17300
C1318       C  0.04816203  0.00688055  0.71090645     0.01600
C1319       C  0.13922817  0.00928719  0.72402974     0.11600
C1320       C  0.11672180  0.01606850  0.79295101     0.62200
H1321       H  0.04973122  0.01468519  0.79453913     0.11600
C1322       C  0.02426401  0.00296483  0.68246592     0.54300
H1323       H  0.09152334  0.00461729  0.68046543     0.07400
C1324       C  0.15714673  0.97963096  0.72235041    -0.06400
C1325       C  0.19139535  0.98162254  0.72175011    -0.07100
C1326       C  0.20725900  0.01216393  0.72241655    -0.16700
C1327       C  0.18927558  0.04175009  0.72094952    -0.02300
C1328       C  0.15503999  0.03978132  0.72176822    -0.09900
C1329       C  0.14013585  0.94633428  0.72157237     0.64400
H1330       H  0.20610144  0.95942447  0.72174864     0.09900
C1331       C  0.20623199  0.07493905  0.71829629     0.62800
H1332       H  0.14034909  0.06198249  0.72221758     0.07200
F1333       F  0.04036130  0.99802581  0.65292382    -0.20200
F1334       F  0.00520656  0.03092390  0.67951378    -0.16500
F1335       F  0.00408355  0.97613634  0.68804166    -0.20000
F1336       F  0.13385730  0.04529760  0.79002292    -0.23300
F1337       F  0.13874842  0.99023950  0.79346492    -0.24800
F1338       F  0.10045919  0.01641736  0.82280946    -0.18800
F1339       F  0.18390592  0.10029800  0.71445817    -0.21300
F1340       F  0.22690284  0.07496784  0.69133808    -0.22500
F1341       F  0.22440734  0.08111481  0.74636854    -0.19600
F1342       F  0.16246903  0.92069187  0.72111641    -0.19700
F1343       F  0.12091658  0.94406132  0.69360851    -0.23600
F1344       F  0.12040765  0.94249860  0.74892853    -0.25200
C1345       C  0.01252958  0.69509034  0.15189676    -0.12000
C1346       C  0.03884109  0.71298131  0.13892003     0.10600
C1347       C  0.06389408  0.72497284  0.15975244    -0.03800
C1348       C  0.05950710  0.72216552  0.19374510    -0.06500
C1349       C  0.03109588  0.70771970  0.20706150    -0.17300
C1350       C  0.00854777  0.69135147  0.18592670     0.01600
C1351       C  0.03666442  0.72327367  0.10439423     0.11600
C1352       C  0.09404263  0.74240463  0.14624657     0.62200
H1353       H  0.07722944  0.73338013  0.21022131     0.11600
C1354       C  0.97965943  0.67144181  0.19866347     0.54300
H1355       H  0.99392159  0.68594888  0.13514888     0.07400
C1356       C  0.04321159  0.70163372  0.07809850    -0.06400
C1357       C  0.03961960  0.71358800  0.04606276    -0.07100
C1358       C  0.02954181  0.74605611  0.03990876    -0.16700
C1359       C  0.02332818  0.76779518  0.06625404    -0.02300
C1360       C  0.02649597  0.75567526  0.09832203    -0.09900
C1361       C  0.05332099  0.66611187  0.08374044     0.64400
H1362       H  0.04398875  0.69734632  0.02539591     0.09900
C1363       C  0.01498389  0.80376663  0.06067342     0.62800
H1364       H  0.02125974  0.77147561  0.11912735     0.07200
F1365       F  0.96179200  0.65721642  0.17335239    -0.20200
F1366       F  0.95867151  0.69143543  0.21634723    -0.16500
F1367       F  0.99103562  0.64626948  0.21848821    -0.20000
F1368       F  0.08540211  0.77282146  0.13383238    -0.23300
F1369       F  0.10797493  0.72385256  0.12143467    -0.24800
F1370       F  0.11765209  0.74715418  0.17033163    -0.18800
F1371       F  0.01290549  0.82099616  0.08997812    -0.21300
F1372       F  0.98509277  0.80651053  0.04479760    -0.22500
F1373       F  0.03916735  0.81829582  0.04172784    -0.19600
F1374       F  0.06217551  0.65071879  0.05469699    -0.19700
F1375       F  0.02744640  0.64877215  0.09724421    -0.23600
F1376       F  0.07988411  0.66473302  0.10489044    -0.25200
C1377       C  0.24749617  0.65452443  0.51152567    -0.12000
C1378       C  0.27425190  0.63925550  0.49643287     0.10600
C1379       C  0.29846650  0.65780607  0.47997049    -0.03800
C1380       C  0.29519119  0.69200867  0.47971975    -0.06500
C1381       C  0.26753966  0.70714890  0.49343838    -0.17300
C1382       C  0.24328749  0.68846807  0.50990945     0.01600
C1383       C  0.27213327  0.60368364  0.49326819     0.11600
C1384       C  0.32635342  0.64152374  0.46131507     0.62200
H1385       H  0.31317660  0.70709875  0.46715177     0.11600
C1386       C  0.21287373  0.70386581  0.52515988     0.54300
H1387       H  0.22885568  0.63925495  0.52289001     0.07400
C1388       C  0.27996310  0.58247989  0.51953014    -0.06400
C1389       C  0.27190454  0.54919719  0.51625953    -0.07100
C1390       C  0.25546356  0.53749648  0.48823035    -0.16700
C1391       C  0.24716828  0.55902974  0.46220385    -0.02300
C1392       C  0.25613434  0.59198835  0.46516518    -0.09900
C1393       C  0.29550621  0.59521531  0.55108470     0.64400
H1394       H  0.27774383  0.53212961  0.53585875     0.09900
C1395       C  0.22734511  0.54797541  0.43242815     0.62800
H1396       H  0.24951862  0.60939786  0.44610479     0.07200
F1397       F  0.19556030  0.68150069  0.54409844    -0.20200
F1398       F  0.19205240  0.71493296  0.50068019    -0.16500
F1399       F  0.22176372  0.72990298  0.54521831    -0.20000
F1400       F  0.31385889  0.62389725  0.43502707    -0.23300
F1401       F  0.34330567  0.62037516  0.48174930    -0.24800
F1402       F  0.34842490  0.66441982  0.44917604    -0.18800
F1403       F  0.21735559  0.57435745  0.41337572    -0.21300
F1404       F  0.19947005  0.53135993  0.44257172    -0.22500
F1405       F  0.24611126  0.52760420  0.41280898    -0.19600
F1406       F  0.30308912  0.56990386  0.57252837    -0.19700
F1407       F  0.27405218  0.61627490  0.56685186    -0.23600
F1408       F  0.32417073  0.61201895  0.54408203    -0.25200
C1409       C  0.21014089  0.08343077  0.45854534    -0.12000
C1410       C  0.23280985  0.10506726  0.47246378     0.10600
C1411       C  0.26215862  0.09353924  0.48691716    -0.03800
C1412       C  0.26857702  0.05988093  0.48562369    -0.06500
C1413       C  0.24607596  0.03790626  0.47149145    -0.17300
C1414       C  0.21596669  0.04958283  0.45803683     0.01600
C1415       C  0.22465463  0.13988293  0.47290135     0.11600
C1416       C  0.28606627  0.11656341  0.50429941     0.62200
H1417       H  0.29105552  0.05033009  0.49620524     0.11600
C1418       C  0.18943484  0.02692396  0.44432554     0.54300
H1419       H  0.18768459  0.09343770  0.44833137     0.07400
C1420       C  0.23363738  0.16077817  0.44682147    -0.06400
C1421       C  0.23112283  0.19462481  0.45181867    -0.07100
C1422       C  0.22000099  0.20738827  0.48185274    -0.16700
C1423       C  0.20814678  0.18617191  0.50680761    -0.02300
C1424       C  0.21030478  0.15230769  0.50147243    -0.09900
C1425       C  0.24654943  0.14731311  0.41446499     0.64400
H1426       H  0.23907684  0.21146600  0.43278574     0.09900
C1427       C  0.19538329  0.19876615  0.53959002     0.62800
H1428       H  0.20283321  0.13513119  0.52040281     0.07200
F1429       F  0.16048741  0.04364331  0.43805035    -0.20200
F1430       F  0.18237493  0.00228811  0.46668723    -0.16500
F1431       F  0.19984061  0.01318590  0.41503818    -0.20000
F1432       F  0.27087647  0.13091465  0.53106904    -0.23300
F1433       F  0.29643356  0.14096886  0.48306683    -0.24800
F1434       F  0.31358225  0.10009409  0.51561195    -0.18800
F1435       F  0.18836993  0.17332896  0.56109814    -0.21300
F1436       F  0.16676368  0.21637566  0.53475603    -0.22500
F1437       F  0.21871496  0.21871752  0.55432849    -0.19600
F1438       F  0.25395067  0.17220703  0.39246965    -0.19700
F1439       F  0.22304373  0.12727004  0.40019337    -0.23600
F1440       F  0.27476516  0.12919530  0.41976787    -0.25200
C1441       C  0.04625646  0.77305152  0.65456522    -0.12000
C1442       C  0.01606800  0.77695352  0.63859998     0.10600
C1443       C  0.98722084  0.78327733  0.65681630    -0.03800
C1444       C  0.98952262  0.78431579  0.69119466    -0.06500
C1445       C  0.01931487  0.77786085  0.70726457    -0.17300
C1446       C  0.04846238  0.77339517  0.68889300     0.01600
C1447       C  0.01490069  0.76966162  0.60327823     0.11600
C1448       C  0.95394533  0.78668701  0.64017675     0.62200
H1449       H  0.96757812  0.78765728  0.70584204     0.11600
C1450       C  0.08157684  0.76804278  0.70522434     0.54300
H1451       H  0.06782000  0.76777083  0.63990765     0.07400
C1452       C  0.02470181  0.79274170  0.57931392    -0.06400
C1453       C  0.02351107  0.78324752  0.54624010    -0.07100
C1454       C  0.01308627  0.75164955  0.53692914    -0.16700
C1455       C  0.00392059  0.72833118  0.56106732    -0.02300
C1456       C  0.00530186  0.73784678  0.59411455    -0.09900
C1457       C  0.03656913  0.82695237  0.58864265     0.64400
H1458       H  0.03052251  0.80056519  0.52726880     0.09900
C1459       C  0.99352999  0.69346863  0.55226947     0.62800
H1460       H  0.99870790  0.72055552  0.61326768     0.07200
F1461       F  0.10712593  0.77214499  0.68316952    -0.20200
F1462       F  0.08328485  0.73644902  0.71763731    -0.16500
F1463       F  0.08598761  0.79043406  0.73048942    -0.20000
F1464       F  0.94445678  0.75673456  0.62710398    -0.23300
F1465       F  0.95557143  0.80964990  0.61519555    -0.24800
F1466       F  0.92996690  0.79674118  0.66206152    -0.18800
F1467       F  0.99085088  0.67373201  0.57986407    -0.21300
F1468       F  0.01649651  0.67936891  0.53159515    -0.22500
F1469       F  0.96325373  0.69389129  0.53684810    -0.19600
F1470       F  0.04294752  0.84605787  0.56121074    -0.19700
F1471       F  0.06521177  0.82466669  0.60676407    -0.23600
F1472       F  0.01301789  0.84283305  0.60719581    -0.25200
C1473       C  0.01356736  0.23944028  0.34314754    -0.12000
C1474       C  0.98391697  0.23053522  0.35811814     0.10600
C1475       C  0.95656381  0.22055830  0.33910878    -0.03800
C1476       C  0.96006524  0.21967972  0.30494728    -0.06500
C1477       C  0.98963457  0.22884818  0.29010932    -0.17300
C1478       C  0.01694826  0.23863253  0.30900606     0.01600
C1479       C  0.98179432  0.23443327  0.39372330     0.11600
C1480       C  0.92383559  0.21169267  0.35471403     0.62200
H1481       H  0.93957855  0.21255557  0.28943640     0.11600
C1482       C  0.04896251  0.24889141  0.29295181     0.54300
H1483       H  0.03378663  0.24762173  0.35848273     0.07400
C1484       C  0.99476066  0.21064527  0.41542850    -0.06400
C1485       C  0.99316785  0.21697607  0.44915659    -0.07100
C1486       C  0.98003713  0.24644667  0.46096971    -0.16700
C1487       C  0.96772474  0.27051986  0.43933767    -0.02300
C1488       C  0.96870798  0.26397323  0.40562300    -0.09900
C1489       C  0.01090297  0.17933407  0.40302028     0.64400
H1490       H  0.00280288  0.19932990  0.46662843     0.09900
C1491       C  0.95424792  0.30293301  0.45193865     0.62800
H1492       H  0.95981062  0.28202361  0.38817365     0.07200
F1493       F  0.06099740  0.22326450  0.27413583    -0.20200
F1494       F  0.07262111  0.25725250  0.31598880    -0.16500
F1495       F  0.04359802  0.27586992  0.27296446    -0.20000
F1496       F  0.91085887  0.23891032  0.37035469    -0.23300
F1497       F  0.92807672  0.18680381  0.37743379    -0.24800
F1498       F  0.90123097  0.20100151  0.33155668    -0.18800
F1499       F  0.97858172  0.31971695  0.46881944    -0.21300
F1500       F  0.92817744  0.29707706  0.47288428    -0.22500
F1501       F  0.94327703  0.32281928  0.42658289    -0.19600
F1502       F  0.01997320  0.15880257  0.42860133    -0.19700
F1503       F  0.03885018  0.18711851  0.38541396    -0.23600
F1504       F  0.98949913  0.16220179  0.38289121    -0.25200
C1505       C  0.99438540  0.30544293  0.91674602    -0.12000
C1506       C  0.00018151  0.27758480  0.89740446     0.10600
C1507       C  0.00678785  0.24671277  0.91183218    -0.03800
C1508       C  0.00476010  0.24423371  0.94584989    -0.06500
C1509       C  0.99627970  0.27141531  0.96514939    -0.17300
C1510       C  0.99210097  0.30282229  0.95095285     0.01600
C1511       C  0.99664865  0.28043141  0.86194422     0.11600
C1512       C  0.01485801  0.21639255  0.89140666     0.62200
H1513       H  0.00839692  0.22060628  0.95761454     0.11600
C1514       C  0.98519542  0.33310540  0.97161514     0.54300
H1515       H  0.99012271  0.32881412  0.90469591     0.07400
C1516       C  0.96566747  0.27641664  0.84676009    -0.06400
C1517       C  0.96470406  0.27281093  0.81263217    -0.07100
C1518       C  0.99353540  0.27428712  0.79408803    -0.16700
C1519       C  0.02432063  0.28024196  0.80922159    -0.02300
C1520       C  0.02526699  0.28331166  0.84336871    -0.09900
C1521       C  0.93404064  0.27607368  0.86657658     0.64400
H1522       H  0.94148733  0.26910607  0.80008672     0.09900
C1523       C  0.05606741  0.28215127  0.78968719     0.62800
H1524       H  0.04843730  0.28683253  0.85605376     0.07200
F1525       F  0.95378078  0.33135192  0.98430768    -0.20200
F1526       F  0.98767294  0.36168042  0.95326709    -0.16500
F1527       F  0.00757893  0.33512116  0.99716891    -0.20000
F1528       F  0.04338484  0.22172977  0.87382981    -0.23300
F1529       F  0.98948713  0.20965034  0.86978253    -0.24800
F1530       F  0.01958472  0.18883231  0.91082547    -0.18800
F1531       F  0.05630521  0.31037066  0.77075343    -0.21300
F1532       F  0.05887309  0.25490839  0.76948043    -0.22500
F1533       F  0.08338086  0.28304483  0.80999764    -0.19600
F1534       F  0.90680660  0.27067028  0.84686697    -0.19700
F1535       F  0.93013304  0.30611396  0.88204891    -0.23600
F1536       F  0.93501153  0.25150728  0.89004613    -0.25200
C1537       C  0.33978886  0.03323913  0.23841912    -0.12000
C1538       C  0.35817205  0.00466927  0.23307146     0.10600
C1539       C  0.34257725  0.97417285  0.22686027    -0.03800
C1540       C  0.30835217  0.97344459  0.22551292    -0.06500
C1541       C  0.28999992  0.00185486  0.23115301    -0.17300
C1542       C  0.30542698  0.03225679  0.23781657     0.01600
C1543       C  0.39377300  0.00647420  0.23684792     0.11600
C1544       C  0.36187677  0.94237285  0.22323472     0.62200
H1545       H  0.29552029  0.95048698  0.22105876     0.11600
C1546       C  0.28558277  0.06291342  0.24536483     0.54300
H1547       H  0.35259261  0.05599088  0.24385400     0.07400
C1548       C  0.41458358  0.01405547  0.21016429    -0.06400
C1549       C  0.44841504  0.00977416  0.21438661    -0.07100
C1550       C  0.46111056  0.99901462  0.24445467    -0.16700
C1551       C  0.44045472  0.99361026  0.27175336    -0.02300
C1552       C  0.40670008  0.99757701  0.26742709    -0.09900
C1553       C  0.40102899  0.02653467  0.17770943     0.64400
H1554       H  0.46522182  0.01471269  0.19435440     0.09900
C1555       C  0.45404031  0.98311576  0.30492695     0.62800
H1556       H  0.38993046  0.99262404  0.28749145     0.07200
F1557       F  0.30554129  0.08955316  0.25268201    -0.20200
F1558       F  0.26547241  0.05715094  0.27213500    -0.16500
F1559       F  0.26639780  0.07105217  0.21850864    -0.20000
F1560       F  0.37656943  0.93455171  0.25287045    -0.23300
F1561       F  0.38586253  0.94579318  0.19948215    -0.24800
F1562       F  0.34187533  0.91631485  0.21416703    -0.18800
F1563       F  0.42933033  0.97779920  0.32766447    -0.21300
F1564       F  0.47456404  0.00735141  0.31717662    -0.22500
F1565       F  0.47157079  0.95420469  0.30152082    -0.19600
F1566       F  0.42571830  0.03212549  0.15501790    -0.19700
F1567       F  0.38463720  0.05585129  0.18282169    -0.23600
F1568       F  0.37944050  0.00382207  0.16445189    -0.25200
C1569       C  0.25381579  0.90400604  0.00753987    -0.12000
C1570       C  0.28416337  0.89470222  0.99441787     0.10600
C1571       C  0.30594556  0.91843881  0.98166858    -0.03800
C1572       C  0.29642693  0.95145970  0.98278862    -0.06500
C1573       C  0.26548743  0.96079545  0.99480727    -0.17300
C1574       C  0.24374005  0.93685483  0.00778451     0.01600
C1575       C  0.28974735  0.85937414  0.99060329     0.11600
C1576       C  0.33799902  0.90884106  0.96522509     0.62200
H1577       H  0.31249908  0.97019015  0.97277853     0.11600
C1578       C  0.20942567  0.94525989  0.01991531     0.54300
H1579       H  0.23748506  0.88489617  0.01637471     0.07400
C1580       C  0.29736626  0.83917609  0.01776776    -0.06400
C1581       C  0.29449847  0.80509241  0.01385493    -0.07100
C1582       C  0.28400150  0.79132699  0.98395081    -0.16700
C1583       C  0.27897018  0.81148092  0.95614842    -0.02300
C1584       C  0.28153534  0.84552900  0.96014537    -0.09900
C1585       C  0.30751153  0.85360261  0.05077823     0.64400
H1586       H  0.29888167  0.78899451  0.03461265     0.09900
C1587       C  0.27080768  0.79731912  0.92256858     0.62800
H1588       H  0.27535166  0.86173508  0.93993082     0.07200
F1589       F  0.21143141  0.96443673  0.04793455    -0.20200
F1590       F  0.19148843  0.91737031  0.02771769    -0.16500
F1591       F  0.19239860  0.96205731  0.99573957    -0.20000
F1592       F  0.33143431  0.89275519  0.93598647    -0.23300
F1593       F  0.35590118  0.88825094  0.98543507    -0.24800
F1594       F  0.35723146  0.93607653  0.95828617    -0.18800
F1595       F  0.23876365  0.78605930  0.92217180    -0.21300
F1596       F  0.29184580  0.77160908  0.91537954    -0.22500
F1597       F  0.27413240  0.82068465  0.89804920    -0.19600
F1598       F  0.31603838  0.82934525  0.07307529    -0.19700
F1599       F  0.28198231  0.87154524  0.06409034    -0.23600
F1600       F  0.33436042  0.87403262  0.04673899    -0.25200
C1601       C  0.22580578  0.41060679  0.00829962    -0.12000
C1602       C  0.24261603  0.39177261  0.98511653     0.10600
C1603       C  0.26102944  0.40671273  0.95981112    -0.03800
C1604       C  0.26386039  0.44097174  0.95998995    -0.06500
C1605       C  0.24896717  0.45969582  0.98465853    -0.17300
C1606       C  0.22892963  0.44473386  0.00883164     0.01600
C1607       C  0.24087042  0.35622216  0.98869546     0.11600
C1608       C  0.27760816  0.38656037  0.93311842     0.62200
H1609       H  0.27842635  0.45336925  0.94147135     0.11600
C1610       C  0.21096078  0.46444174  0.03501273     0.54300
H1611       H  0.21125252  0.39811311  0.02677516     0.07400
C1612       C  0.26100365  0.33945288  0.01151798    -0.06400
C1613       C  0.25753986  0.30537474  0.01401943    -0.07100
C1614       C  0.23450704  0.28858288  0.99478417    -0.16700
C1615       C  0.21450665  0.30535763  0.97188588    -0.02300
C1616       C  0.21774665  0.33943112  0.96960822    -0.09900
C1617       C  0.28581401  0.35745901  0.03301321     0.64400
H1618       H  0.27270041  0.29151157  0.03096752     0.09900
C1619       C  0.19087819  0.28725570  0.94921597     0.62800
H1620       H  0.20249651  0.35330634  0.95275755     0.07200
F1621       F  0.18885206  0.44517110  0.05227379    -0.20200
F1622       F  0.19361761  0.48983311  0.02052531    -0.16500
F1623       F  0.23319874  0.47724192  0.05734845    -0.20000
F1624       F  0.25408011  0.37027267  0.91471866    -0.23300
F1625       F  0.29855877  0.36372105  0.94701650    -0.24800
F1626       F  0.29579097  0.40612150  0.91204697    -0.18800
F1627       F  0.17618955  0.30826547  0.92684070    -0.21300
F1628       F  0.16632093  0.27252418  0.96744964    -0.22500
F1629       F  0.20763600  0.26341539  0.93170500    -0.19600
F1630       F  0.30420570  0.33591284  0.05185905    -0.19700
F1631       F  0.26969282  0.37861878  0.05411872    -0.23600
F1632       F  0.30721410  0.37537024  0.01365452    -0.25200
C1633       C  0.84112702  0.97616095  0.28989697    -0.12000
C1634       C  0.85724138  0.99106752  0.26357108     0.10600
C1635       C  0.83979498  0.00818820  0.23894880    -0.03800
C1636       C  0.80586021  0.01077439  0.24227579    -0.06500
C1637       C  0.78969934  0.99627299  0.26887708    -0.17300
C1638       C  0.80715050  0.97841741  0.29309866     0.01600
C1639       C  0.89257068  0.98725344  0.26177961     0.11600
C1640       C  0.85680749  0.02278719  0.20905951     0.62200
H1641       H  0.79151779  0.02357374  0.22383033     0.11600
C1642       C  0.79008549  0.96080672  0.32131172     0.54300
H1643       H  0.85550937  0.96262452  0.30777049     0.07400
C1644       C  0.91390430  0.00832593  0.27927657    -0.06400
C1645       C  0.94756955  0.00487672  0.27404880    -0.07100
C1646       C  0.95951949  0.98079806  0.25258946    -0.16700
C1647       C  0.93814739  0.95889086  0.23615157    -0.02300
C1648       C  0.90455504  0.96233650  0.24144023    -0.09900
C1649       C  0.90104631  0.03423268  0.30295555     0.64400
H1650       H  0.96483810  0.02102604  0.28640416     0.09900
C1651       C  0.95064247  0.93305183  0.21224202     0.62800
H1652       H  0.88722155  0.94624182  0.22910261     0.07200
F1653       F  0.81172013  0.94172695  0.33935641    -0.20200
F1654       F  0.76576922  0.94029731  0.30915292    -0.16500
F1655       F  0.77631185  0.98354625  0.34245628    -0.20000
F1656       F  0.87017948  0.99787253  0.19022671    -0.23300
F1657       F  0.88155389  0.04397672  0.21884760    -0.24800
F1658       F  0.83520537  0.04024996  0.18941142    -0.18800
F1659       F  0.92517230  0.91719045  0.19610866    -0.21300
F1660       F  0.96858045  0.90960523  0.22904272    -0.22500
F1661       F  0.97036449  0.94769453  0.18874679    -0.19600
F1662       F  0.92622069  0.05270632  0.31657630    -0.19700
F1663       F  0.88422659  0.01917642  0.32833187    -0.23600
F1664       F  0.88003860  0.05543242  0.28672707    -0.25200
C1665       C  0.58386303  0.01341330  0.79833337    -0.12000
C1666       C  0.60476591  0.00956763  0.77145218     0.10600
C1667       C  0.59226496  0.00357982  0.73958070    -0.03800
C1668       C  0.55825527  0.00314591  0.73542623    -0.06500
C1669       C  0.53724529  0.00829729  0.76208366    -0.17300
C1670       C  0.54982784  0.01290053  0.79423152     0.01600
C1671       C  0.63991360  0.01033318  0.77770055     0.11600
C1672       C  0.61467032  0.99745972  0.71032746     0.62200
H1673       H  0.54772776  0.99932578  0.71123126     0.11600
C1674       C  0.52767537  0.01630650  0.82407381     0.54300
H1675       H  0.59456314  0.01706977  0.82247619     0.07400
C1676       C  0.65790577  0.03998353  0.77662756    -0.06400
C1677       C  0.69207501  0.03801593  0.77814464    -0.07100
C1678       C  0.70775842  0.00769591  0.78235186    -0.16700
C1679       C  0.68943233  0.97847781  0.78697940    -0.02300
C1680       C  0.65533348  0.98035031  0.78413946    -0.09900
C1681       C  0.64108392  0.07323240  0.77410264     0.64400
H1682       H  0.70690468  0.06004175  0.77568776     0.09900
C1683       C  0.70562545  0.94551644  0.79379749     0.62800
H1684       H  0.64036444  0.95836627  0.78606027     0.07200
F1685       F  0.51076803  0.04571996  0.82274692    -0.20200
F1686       F  0.54542295  0.01587673  0.85315130    -0.16500
F1687       F  0.50553289  0.99047734  0.82489824    -0.20000
F1688       F  0.63304444  0.96940511  0.71566484    -0.23300
F1689       F  0.63565210  0.02383522  0.70592332    -0.24800
F1690       F  0.59704380  0.99312568  0.68149509    -0.18800
F1691       F  0.72133908  0.94658055  0.82394620    -0.21300
F1692       F  0.72822715  0.93839396  0.76947777    -0.22500
F1693       F  0.68294578  0.92011242  0.79474865    -0.19600
F1694       F  0.66354693  0.09884183  0.77363535    -0.19700
F1695       F  0.62077884  0.07767317  0.80094065    -0.23600
F1696       F  0.62248406  0.07493857  0.74571312    -0.25200
C1697       C  0.50560325  0.22618404  0.59254989    -0.12000
C1698       C  0.49715282  0.25511081  0.60888089     0.10600
C1699       C  0.48607224  0.28304966  0.59149707    -0.03800
C1700       C  0.48335224  0.28074139  0.55734377    -0.06500
C1701       C  0.49146773  0.25160446  0.54095751    -0.17300
C1702       C  0.50224079  0.22353175  0.55857805     0.01600
C1703       C  0.49875010  0.25475879  0.64458413     0.11600
C1704       C  0.47709138  0.31484989  0.60897213     0.62200
H1705       H  0.47524137  0.30173341  0.54308819     0.11600
C1706       C  0.50888237  0.19056989  0.54210219     0.54300
H1707       H  0.51433671  0.20548094  0.60686500     0.07400
C1708       C  0.47364633  0.23998419  0.66331667    -0.06400
C1709       C  0.47567641  0.24234930  0.69736712    -0.07100
C1710       C  0.50202099  0.25849094  0.71272504    -0.16700
C1711       C  0.52783761  0.27225937  0.69384729    -0.02300
C1712       C  0.52579951  0.26969783  0.65965240    -0.09900
C1713       C  0.44512907  0.22154090  0.64753861     0.64400
H1714       H  0.45632368  0.23187213  0.71231411     0.09900
C1715       C  0.55731507  0.28939198  0.70926319     0.62800
H1716       H  0.54485211  0.28007860  0.64423859     0.07200
F1717       F  0.48301390  0.18233228  0.52155991    -0.20200
F1718       F  0.51230239  0.16551849  0.56489497    -0.16500
F1719       F  0.53760335  0.19215296  0.52411183    -0.20000
F1720       F  0.50444638  0.32769554  0.62456670    -0.23300
F1721       F  0.45291629  0.30889002  0.63205243    -0.24800
F1722       F  0.46544500  0.33835347  0.58729636    -0.18800
F1723       F  0.57060286  0.26992821  0.73377187    -0.21300
F1724       F  0.54787197  0.31931351  0.72235588    -0.22500
F1725       F  0.58172888  0.29545413  0.68638991    -0.19600
F1726       F  0.42167213  0.21249252  0.67043435    -0.19700
F1727       F  0.45661102  0.19320646  0.63271073    -0.23600
F1728       F  0.42994877  0.24100264  0.62418423    -0.25200
C1729       C  0.47646376  0.27534788  0.09623073    -0.12000
C1730       C  0.50321945  0.25759953  0.10856224     0.10600
C1731       C  0.52299303  0.23827960  0.08763061    -0.03800
C1732       C  0.51471239  0.23694564  0.05438561    -0.06500
C1733       C  0.48758264  0.25413373  0.04213516    -0.17300
C1734       C  0.46857420  0.27445029  0.06280122     0.01600
C1735       C  0.50608894  0.25489395  0.14411227     0.11600
C1736       C  0.55228987  0.21889153  0.10039281     0.62200
H1737       H  0.52936624  0.22244912  0.03753803     0.11600
C1738       C  0.44086946  0.29557743  0.04948039     0.54300
H1739       H  0.46142697  0.28929450  0.11319044     0.07400
C1740       C  0.52059799  0.27955623  0.16381573    -0.06400
C1741       C  0.52088652  0.27481489  0.19788538    -0.07100
C1742       C  0.50712559  0.24647356  0.21185732    -0.16700
C1743       C  0.49235270  0.22198488  0.19192833    -0.02300
C1744       C  0.49186025  0.22698344  0.15812005    -0.09900
C1745       C  0.53493923  0.31072010  0.14903114     0.64400
H1746       H  0.53142668  0.29332279  0.21395545     0.09900
C1747       C  0.47636868  0.19118858  0.20600407     0.62800
H1748       H  0.48037633  0.20902324  0.14205698     0.07200
F1749       F  0.45261644  0.31581495  0.02481005    -0.20200
F1750       F  0.42734626  0.31536117  0.07364193    -0.16500
F1751       F  0.41627380  0.27570163  0.03694363    -0.20000
F1752       F  0.54181377  0.19420304  0.12122835    -0.23300
F1753       F  0.57339506  0.23949377  0.11733043    -0.24800
F1754       F  0.56980818  0.20443650  0.07508083    -0.18800
F1755       F  0.45411145  0.19963572  0.23023138    -0.21300
F1756       F  0.50019959  0.17082045  0.21907846    -0.22500
F1757       F  0.45957172  0.17347711  0.18220709    -0.19600
F1758       F  0.54911356  0.33067330  0.17276308    -0.19700
F1759       F  0.51044952  0.32847004  0.13360612    -0.23600
F1760       F  0.55883195  0.30287608  0.12627314    -0.25200
C1761       C  0.09399391  0.47909730  0.26628175    -0.12000
C1762       C  0.10274860  0.47650259  0.23311420     0.10600
C1763       C  0.07878106  0.47141792  0.20856575    -0.03800
C1764       C  0.04593396  0.47020935  0.21826614    -0.06500
C1765       C  0.03703612  0.47434891  0.25128309    -0.17300
C1766       C  0.06111323  0.47862103  0.27592368     0.01600
C1767       C  0.13763820  0.47841405  0.22543688     0.11600
C1768       C  0.08781467  0.46781853  0.17250568     0.62200
H1769       H  0.02678218  0.46682366  0.20003398     0.11600
C1770       C  0.05226556  0.48196900  0.31203486     0.54300
H1771       H  0.11326582  0.48208358  0.28445426     0.07400
C1772       C  0.15446305  0.50884352  0.22565230    -0.06400
C1773       C  0.18863747  0.50835212  0.22340331    -0.07100
C1774       C  0.20570168  0.47857736  0.22205672    -0.16700
C1775       C  0.18887565  0.44829970  0.21988780    -0.02300
C1776       C  0.15463503  0.44873468  0.22183270    -0.09900
C1777       C  0.13673042  0.54139396  0.23035494     0.64400
H1778       H  0.20247675  0.53110689  0.22498785     0.09900
C1779       C  0.20697508  0.41600432  0.21541605     0.62800
H1780       H  0.14089871  0.42587770  0.22198745     0.07200
F1781       F  0.03486600  0.51068079  0.31712084    -0.20200
F1782       F  0.07992250  0.48300638  0.33187779    -0.16500
F1783       F  0.03334470  0.45539072  0.32165150    -0.20000
F1784       F  0.10740789  0.44044376  0.16815029    -0.23300
F1785       F  0.10468904  0.49540921  0.16205014    -0.24800
F1786       F  0.06029249  0.46415840  0.15278408    -0.18800
F1787       F  0.22641518  0.40967254  0.24255529    -0.21300
F1788       F  0.22658331  0.41781212  0.18774282    -0.22500
F1789       F  0.18549563  0.38984032  0.21142099    -0.19600
F1790       F  0.15753703  0.56795492  0.22567550    -0.19700
F1791       F  0.12436455  0.54327304  0.26191919    -0.23600
F1792       F  0.11115645  0.54409981  0.20814926    -0.25200
C1793       C  0.73939467  0.65619110  0.97799818    -0.12000
C1794       C  0.76793403  0.63949981  0.98736678     0.10600
C1795       C  0.79655238  0.65681154  0.99644134    -0.03800
C1796       C  0.79465341  0.69092650  0.99876178    -0.06500
C1797       C  0.76509184  0.70765388  0.99286985    -0.17300
C1798       C  0.73714843  0.69040125  0.98114337     0.01600
C1799       C  0.76562576  0.60410599  0.99261034     0.11600
C1800       C  0.82834184  0.63923649  0.00519639     0.62200
H1801       H  0.81594368  0.70465785  0.00702295     0.11600
C1802       C  0.70502240  0.70744889  0.97277117     0.54300
H1803       H  0.71810511  0.64189628  0.97067948     0.07400
C1804       C  0.75134147  0.59153830  0.02169238    -0.06400
C1805       C  0.75043896  0.55752356  0.02585095    -0.07100
C1806       C  0.76362784  0.53644666  0.00215397    -0.16700
C1807       C  0.77970462  0.54907478  0.97408190    -0.02300
C1808       C  0.77967683  0.58312273  0.96932583    -0.09900
C1809       C  0.73683844  0.61384533  0.04799674     0.64400
H1810       H  0.73835413  0.54703068  0.04712102     0.09900
C1811       C  0.79789955  0.52694430  0.95017730     0.62800
H1812       H  0.79081279  0.59368503  0.94758200     0.07200
F1813       F  0.68966475  0.71763427  0.00129870    -0.20200
F1814       F  0.68366303  0.68664624  0.95623349    -0.16500
F1815       F  0.71090856  0.73434791  0.95281474    -0.20000
F1816       F  0.83952123  0.62179524  0.97828132    -0.23300
F1817       F  0.82313857  0.61776179  0.03102148    -0.24800
F1818       F  0.85280344  0.66105663  0.01448956    -0.18800
F1819       F  0.77582654  0.50907086  0.93147086    -0.21300
F1820       F  0.81795770  0.50555618  0.96740334    -0.22500
F1821       F  0.81754978  0.54493842  0.92902051    -0.19600
F1822       F  0.72740073  0.59633860  0.07559788    -0.19700
F1823       F  0.70943259  0.62970837  0.03575774    -0.23600
F1824       F  0.75974174  0.63703064  0.05780178    -0.25200
loop_ 
_geom_bond_atom_site_label_1 
_geom_bond_atom_site_label_2 
_geom_bond_distance 
_geom_bond_site_symmetry_2 
_ccdc_geom_bond_type 
O1           Mg3   2.175       .  S
O1           Mg9   2.127       .  S
O1           C36   1.240       .  S
C2           O15   1.239       .  S
C2           O39   1.272       .  A
C2           H41   1.081       .  S
Mg3          O32   2.143       .  S
Mg3          O47   2.441       .  S
Mg3          O43   2.384       .  S
Mg3          O14   2.327       .  S
O4          Mg46   2.146       .  S
O4          Mg29   2.177       .  S
O4           C25   1.241       .  S
O5           C36   1.275       .  A
O5          Mg29   2.320       .  S
C6            O8   1.257       .  A
C6           O20   1.297       .  A
C6          C495   1.484       .  S
O7           C35   1.274       .  A
O7           Mg9   2.309       .  S
O8          Mg40   2.192       .  S
Mg9          O15   2.139       .  S
Mg9          O23   2.182       .  S
Mg9          O11   2.291       .  S
C10          O48   1.291       .  A
C10          O16   1.265       .  A
C10         C501   1.502       .  S
O11          C18   1.268       .  A
H12          C25   1.081       .  S
C13          O27   1.238       .  S
C13          O28   1.273       .  A
C13          H38   1.081       .  S
O14          C37   1.277       .  A
O15         Mg29   2.143       .  S
O16         Mg46   2.267       .  S
C17          O30   1.260       .  A
C17          O22   1.300       .  A
C17         C521   1.489       .  S
C18          O45   1.294       .  A
C18         C513   1.510       .  S
Mg19         O26   2.178       .  S
Mg19         O27   2.136       .  S
Mg19         O20   2.456       .  S
Mg19         O21   2.323       .  S
Mg19         O48   2.397       .  S
O21          C25   1.277       .  A
O22         Mg29   2.466       .  S
O23          C42   1.260       .  A
O24          C44   1.263       .  A
O24         Mg40   2.250       .  S
O26         Mg40   2.134       .  S
O26          C37   1.241       .  S
O27         Mg46   2.141       .  S
O28         Mg40   2.308       .  S
Mg29         O45   2.412       .  S
O30         Mg46   2.192       .  S
H31          C36   1.082       .  S
O32         Mg40   2.135       .  S
O32          C35   1.240       .  S
H33          C35   1.081       .  S
H34          C37   1.081       .  S
O39         Mg46   2.297       .  S
C42          O47   1.292       .  A
C42         C507   1.479       .  S
O43          C44   1.286       .  A
C44         C489   1.497       .  S
O49         Mg51   2.178       .  S
O49         Mg57   2.126       .  S
O49          C84   1.239       .  S
C50          O63   1.239       .  S
C50          O87   1.273       .  A
C50          H89   1.081       .  S
Mg51         O80   2.136       .  S
Mg51         O95   2.434       .  S
Mg51         O91   2.392       .  S
Mg51         O62   2.316       .  S
O52         Mg94   2.146       .  S
O52         Mg77   2.182       .  S
O52          C73   1.241       .  S
O53          C84   1.275       .  A
O53         Mg77   2.320       .  S
C54          O56   1.257       .  A
C54          O68   1.300       .  A
C54         C503   1.491       .  S
O55          C83   1.273       .  A
O55         Mg57   2.303       .  S
O56         Mg88   2.183       .  S
Mg57         O63   2.134       .  S
Mg57         O71   2.163       .  S
Mg57         O59   2.275       .  S
C58          O96   1.289       .  A
C58          O64   1.269       .  A
C58         C455   1.498       .  S
O59          C66   1.264       .  A
H60          C73   1.081       .  S
C61          O75   1.239       .  S
C61          O76   1.273       .  A
C61          H86   1.081       .  S
O62          C85   1.276       .  A
O63         Mg77   2.141       .  S
O64         Mg94   2.282       .  S
C65          O78   1.266       .  A
C65          O70   1.298       .  A
C65         C471   1.497   1_655  S
C66          O93   1.294       .  A
C66         C155   1.508       .  S
Mg67         O74   2.156       .  S
Mg67         O75   2.150       .  S
Mg67         O68   2.479       .  S
Mg67         O69   2.330       .  S
Mg67         O96   2.375       .  S
O69          C73   1.278       .  A
O70         Mg77   2.463       .  S
O71          C90   1.256       .  A
O72          C92   1.263       .  A
O72         Mg88   2.258       .  S
O74         Mg88   2.136       .  S
O74          C85   1.241       .  S
O75         Mg94   2.162       .  S
O76         Mg88   2.306       .  S
Mg77         O93   2.413       .  S
O78         Mg94   2.222       .  S
H79          C84   1.082       .  S
O80         Mg88   2.124       .  S
O80          C83   1.240       .  S
H81          C83   1.081       .  S
H82          C85   1.081       .  S
O87         Mg94   2.297       .  S
C90          O95   1.292       .  A
C90         C525   1.473       .  S
O91          C92   1.289       .  A
C92         C519   1.501       .  S
O97         Mg99   2.172       .  S
O97        Mg105   2.137       .  S
O97         C132   1.239       .  S
C98         O111   1.241       .  S
C98         O135   1.274       .  A
C98         H137   1.081       .  S
Mg99        O128   2.153       .  S
Mg99        O143   2.437       .  S
Mg99        O139   2.379       .  S
Mg99        O110   2.309       .  S
O100       Mg142   2.142       .  S
O100       Mg125   2.165       .  S
O100        C121   1.241       .  S
O101        C132   1.275       .  A
O101       Mg125   2.319       .  S
C102        O104   1.262       .  A
C102        O116   1.298       .  A
C102        C483   1.491       .  S
O103        C131   1.273       .  A
O103       Mg105   2.298       .  S
O104       Mg136   2.203       .  S
Mg105       O111   2.152       .  S
Mg105       O119   2.182       .  S
Mg105       O107   2.310       .  S
C106        O144   1.290       .  A
C106        O112   1.264       .  A
C106        C297   1.499       .  S
O107        C114   1.270       .  A
H108        C121   1.081       .  S
C109        O123   1.241       .  S
C109        O124   1.274       .  A
C109        H134   1.081       .  S
O110        C133   1.274       .  A
O111       Mg125   2.141       .  S
O112       Mg142   2.259       .  S
C113        O126   1.262       .  A
C113        O118   1.298       .  A
C113        C305   1.493       .  S
C114        O141   1.293       .  A
C114        C153   1.508       .  S
Mg115       O122   2.153       .  S
Mg115       O123   2.154       .  S
Mg115       O116   2.465       .  S
Mg115       O117   2.320       .  S
Mg115       O144   2.389       .  S
O117        C121   1.276       .  A
O118       Mg125   2.463       .  S
O119        C138   1.262       .  A
O120        C140   1.265       .  A
O120       Mg136   2.260       .  S
O122       Mg136   2.136       .  S
O122        C133   1.239       .  S
O123       Mg142   2.149       .  S
O124       Mg136   2.302       .  S
Mg125       O141   2.388       .  S
O126       Mg142   2.210       .  S
H127        C132   1.082       .  S
O128       Mg136   2.137       .  S
O128        C131   1.240       .  S
H129        C131   1.081       .  S
H130        C133   1.081       .  S
O135       Mg142   2.305       .  S
C138        O143   1.293       .  A
C138        C527   1.481       .  S
O139        C140   1.289       .  A
C140        C149   1.495       .  S
C145       C1806   1.451       .  S
C145        N146   1.354   1_554  A
C145        N150   1.359       .  A
N146        C147   1.346       .  A
C147        C173   1.488       .  S
C147        N148   1.376   1_556  A
N148        C149   1.374       .  A
C149        N150   1.352       .  A
C151       C1765   1.451       .  S
C151        N152   1.352   1_455  A
C151        N156   1.353   1_455  A
N152        C153   1.349       .  A
C153        N154   1.386       .  A
N154        C155   1.387       .  A
C155        N156   1.350       .  A
O157       Mg159   2.167       .  S
O157       Mg165   2.136       .  S
O157        C192   1.238       .  S
C158        O171   1.240       .  S
C158        O195   1.273       .  A
C158        H197   1.081       .  S
Mg159       O188   2.154       .  S
Mg159       O203   2.430       .  S
Mg159       O199   2.375       .  S
Mg159       O170   2.308       .  S
O160       Mg202   2.147       .  S
O160       Mg185   2.170       .  S
O160        C181   1.240       .  S
O161        C192   1.274       .  A
O161       Mg185   2.317       .  S
C162        O164   1.260       .  A
C162        O176   1.296       .  A
C162        C255   1.483       .  S
O163        C191   1.273       .  A
O163       Mg165   2.298       .  S
O164       Mg196   2.199       .  S
Mg165       O171   2.142       .  S
Mg165       O179   2.183       .  S
Mg165       O167   2.311       .  S
C166        O204   1.288       .  A
C166        O172   1.265       .  A
C166        C485   1.492       .  S
O167        C174   1.270       .  A
H168        C181   1.081       .  S
C169        O183   1.240       .  S
C169        O184   1.273       .  A
C169        H194   1.081       .  S
O170        C193   1.273       .  A
O171       Mg185   2.138       .  S
O172       Mg202   2.261       .  S
C173        O186   1.261       .  A
C173        O178   1.297       .  A
C174        O201   1.293       .  A
C174        C515   1.509       .  S
Mg175       O182   2.142       .  S
Mg175       O183   2.152       .  S
Mg175       O176   2.439       .  S
Mg175       O177   2.319       .  S
Mg175       O204   2.368       .  S
O177        C181   1.275       .  A
O178       Mg185   2.449       .  S
O179        C198   1.262       .  A
O180        C200   1.261       .  A
O180       Mg196   2.237       .  S
O182       Mg196   2.140       .  S
O182        C193   1.239       .  S
O183       Mg202   2.144       .  S
O184       Mg196   2.299       .  S
Mg185       O201   2.393       .  S
O186       Mg202   2.199       .  S
H187        C192   1.082       .  S
O188       Mg196   2.138       .  S
O188        C191   1.240       .  S
H189        C191   1.081       .  S
H190        C193   1.081       .  S
O195       Mg202   2.299       .  S
C198        O203   1.293       .  A
C198        C509   1.480       .  S
O199        C200   1.288       .  A
C200        C263   1.491       .  S
O205       Mg207   2.161       .  S
O205       Mg213   2.134       .  S
O205        C240   1.240       .  S
C206        O219   1.239       .  S
C206        O243   1.273       .  A
C206        H245   1.080       .  S
Mg207       O236   2.152       .  S
Mg207       O251   2.455       .  S
Mg207       O247   2.381       .  S
Mg207       O218   2.321       .  S
O208       Mg250   2.146       .  S
O208       Mg233   2.178       .  S
O208        C229   1.240       .  S
O209        C240   1.275       .  A
O209       Mg233   2.314       .  S
C210        O212   1.261       .  A
C210        O224   1.297       .  A
C210        C279   1.490       .  S
O211        C239   1.273       .  A
O211       Mg213   2.297       .  S
O212       Mg244   2.209       .  S
Mg213       O219   2.142       .  S
Mg213       O227   2.182       .  S
Mg213       O215   2.283       .  S
C214        O252   1.289       .  A
C214        O220   1.266       .  A
C214        C257   1.499       .  S
O215        C222   1.266       .  A
H216        C229   1.081       .  S
C217        O231   1.239       .  S
C217        O232   1.273       .  A
C217        H242   1.081       .  S
O218        C241   1.276       .  A
O219       Mg233   2.137       .  S
O220       Mg250   2.262       .  S
C221        O234   1.263       .  A
C221        O226   1.300       .  A
C221        C261   1.493       .  S
C222        O249   1.296       .  A
C222        C269   1.508       .  S
Mg223       O230   2.166       .  S
Mg223       O231   2.156       .  S
Mg223       O224   2.453       .  S
Mg223       O225   2.323       .  S
Mg223       O252   2.391       .  S
O225        C229   1.276       .  A
O226       Mg233   2.468       .  S
O227        C246   1.261       .  A
O228        C248   1.264       .  A
O228       Mg244   2.253       .  S
O230       Mg244   2.145       .  S
O230        C241   1.241       .  S
O231       Mg250   2.149       .  S
O232       Mg244   2.303       .  S
Mg233       O249   2.410       .  S
O234       Mg250   2.208       .  S
H235        C240   1.082       .  S
O236       Mg244   2.141       .  S
O236        C239   1.240       .  S
H237        C239   1.081       .  S
H238        C241   1.081       .  S
O243       Mg250   2.298       .  S
C246        O251   1.295       .  A
C246        C477   1.486       .  S
O247        C248   1.288       .  A
C248        C287   1.496       .  S
C253       C1733   1.447       .  S
C253        N254   1.351   1_554  A
C253        N258   1.361   1_554  A
N254        C255   1.341       .  A
C255        N256   1.374       .  A
N256        C257   1.376       .  A
C257        N258   1.356       .  A
C259       C1710   1.456       .  S
C259        N260   1.358       .  A
C259        N264   1.353       .  A
N260        C261   1.347       .  A
C261        N262   1.378       .  A
N262        C263   1.376       .  A
C263        N264   1.347       .  A
C265       C1669   1.450       .  S
C265        N266   1.355   1_545  A
C265        N270   1.349       .  A
N266        C267   1.352       .  A
C267        C372   1.513       .  S
C267        N268   1.388   1_565  A
N268        C269   1.388       .  A
C269        N270   1.346       .  A
C271       C1646   1.442       .  S
C271        N272   1.357   1_655  A
C271        N276   1.360   1_665  A
N272        C273   1.347       .  A
C273        C444   1.473       .  S
C273        N274   1.365       .  A
N274        C275   1.366   1_565  A
C275        C348   1.478       .  S
C275        N276   1.348       .  A
C277       C1614   1.444       .  S
C277        N278   1.355       .  A
C277        N282   1.355   1_556  A
N278        C279   1.348       .  A
C279        N280   1.377       .  A
N280        C281   1.377   1_556  A
C281        C316   1.495       .  S
C281        N282   1.349       .  A
C283       C1573   1.464       .  S
C283        N284   1.357   1_566  A
C283        N288   1.360   1_565  A
N284        C285   1.350       .  A
C285        C323   1.492       .  S
C285        N286   1.376   1_554  A
N286        C287   1.374       .  A
C287        N288   1.351       .  A
C289       C1541   1.448   1_565  S
C289        N290   1.351   1_565  A
C289        N294   1.353       .  A
N290        C291   1.350       .  A
C291        C324   1.507       .  S
C291        N292   1.386   1_545  A
N292        C293   1.387       .  A
C293        C420   1.510       .  S
C293        N294   1.350       .  A
C295       C1509   1.450       .  S
C295        N296   1.358   1_556  A
C295        N300   1.355   1_656  A
N296        C297   1.352       .  A
C297        N298   1.378       .  A
N298        C299   1.379   1_655  A
C299        C312   1.493       .  S
C299        N300   1.345       .  A
C301       C1477   1.445       .  S
C301        N302   1.355   1_655  A
C301        N306   1.356       .  A
N302        C303   1.350       .  A
C303        C350   1.497       .  S
C303        N304   1.377   1_455  A
N304        C305   1.378       .  A
C305        N306   1.349       .  A
O307       Mg309   2.170       .  S
O307       Mg315   2.137       .  S
O307        C342   1.239       .  S
C308        O321   1.240       .  S
C308        O345   1.273       .  A
C308        H347   1.080       .  S
Mg309       O338   2.152       .  S
Mg309       O353   2.433       .  S
Mg309       O349   2.376       .  S
Mg309       O320   2.313       .  S
O310       Mg352   2.144       .  S
O310       Mg335   2.160       .  S
O310        C331   1.240       .  S
O311        C342   1.274       .  A
O311       Mg335   2.317       .  S
C312        O314   1.261       .  A
C312        O326   1.300       .  A
O313        C341   1.274       .  A
O313       Mg315   2.302       .  S
O314       Mg346   2.204       .  S
Mg315       O321   2.133       .  S
Mg315       O329   2.166       .  S
Mg315       O317   2.302       .  S
C316        O354   1.291       .  A
C316        O322   1.265       .  A
O317        C324   1.269       .  A
H318        C331   1.081       .  S
C319        O333   1.239       .  S
C319        O334   1.273       .  A
C319        H344   1.081       .  S
O320        C343   1.274       .  A
O321       Mg335   2.137       .  S
O322       Mg352   2.253       .  S
C323        O336   1.265       .  A
C323        O328   1.297       .  A
C324        O351   1.292       .  A
Mg325       O332   2.157       .  S
Mg325       O333   2.160       .  S
Mg325       O326   2.462       .  S
Mg325       O327   2.316       .  S
Mg325       O354   2.388       .  S
O327        C331   1.275       .  A
O328       Mg335   2.449       .  S
O329        C348   1.259       .  A
O330        C350   1.265       .  A
O330       Mg346   2.267       .  S
O332       Mg346   2.147       .  S
O332        C343   1.239       .  S
O333       Mg352   2.160       .  S
O334       Mg346   2.301       .  S
Mg335       O351   2.387       .  S
O336       Mg352   2.221       .  S
H337        C342   1.082       .  S
O338       Mg346   2.143       .  S
O338        C341   1.241       .  S
H339        C341   1.081       .  S
H340        C343   1.081       .  S
O345       Mg352   2.294       .  S
C348        O353   1.292       .  A
O349        C350   1.288       .  A
O355       Mg357   2.181       .  S
O355       Mg363   2.138       .  S
O355        C390   1.239       .  S
C356        O369   1.239       .  S
C356        O393   1.272       .  A
C356        H395   1.081       .  S
Mg357       O386   2.145       .  S
Mg357       O401   2.447       .  S
Mg357       O397   2.400       .  S
Mg357       O368   2.320       .  S
O358       Mg400   2.145       .  S
O358       Mg383   2.188       .  S
O358        C379   1.241       .  S
O359        C390   1.275       .  A
O359       Mg383   2.318       .  S
C360        O362   1.260       .  A
C360        O374   1.299       .  A
C360        C465   1.492       .  S
O361        C389   1.273       .  A
O361       Mg363   2.300       .  S
O362       Mg394   2.197       .  S
Mg363       O369   2.128       .  S
Mg363       O377   2.154       .  S
Mg363       O365   2.306       .  S
C364        O402   1.289       .  A
C364        O370   1.266       .  A
C364        C497   1.497       .  S
O365        C372   1.268       .  A
H366        C379   1.081       .  S
C367        O381   1.238       .  S
C367        O382   1.273       .  A
C367        H392   1.081       .  S
O368        C391   1.276       .  A
O369       Mg383   2.131       .  S
O370       Mg400   2.267       .  S
C371        O384   1.263       .  A
C371        O376   1.295       .  A
C371        C491   1.486       .  S
C372        O399   1.293       .  A
Mg373       O380   2.161       .  S
Mg373       O381   2.142       .  S
Mg373       O374   2.472       .  S
Mg373       O375   2.333       .  S
Mg373       O402   2.383       .  S
O375        C379   1.278       .  A
O376       Mg383   2.440       .  S
O377        C396   1.258       .  A
O378        C398   1.264       .  A
O378       Mg394   2.256       .  S
O380       Mg394   2.137       .  S
O380        C391   1.241       .  S
O381       Mg400   2.150       .  S
O382       Mg394   2.303       .  S
Mg383       O399   2.406       .  S
O384       Mg400   2.209       .  S
H385        C390   1.082       .  S
O386       Mg394   2.135       .  S
O386        C389   1.239       .  S
H387        C389   1.081       .  S
H388        C391   1.081       .  S
O393       Mg400   2.296       .  S
C396        O401   1.295       .  A
C396        C479   1.478       .  S
O397        C398   1.290       .  A
C398        C459   1.501       .  S
O403       Mg405   2.178       .  S
O403       Mg411   2.133       .  S
O403        C438   1.239       .  S
C404        O417   1.238       .  S
C404        O441   1.272       .  A
C404        H443   1.081       .  S
Mg405       O434   2.143       .  S
Mg405       O449   2.433       .  S
Mg405       O445   2.392       .  S
Mg405       O416   2.316       .  S
O406       Mg448   2.147       .  S
O406       Mg431   2.184       .  S
O406        C427   1.242       .  S
O407        C438   1.275       .  A
O407       Mg431   2.319       .  S
C408        O410   1.261       .  A
C408        O422   1.299       .  A
C408        C453   1.493       .  S
O409        C437   1.273       .  A
O409       Mg411   2.298       .  S
O410       Mg442   2.194       .  S
Mg411       O417   2.132       .  S
Mg411       O425   2.162       .  S
Mg411       O413   2.292       .  S
C412        O450   1.289       .  A
C412        O418   1.263       .  A
C412        C467   1.497       .  S
O413        C420   1.267       .  A
H414        C427   1.081       .  S
C415        O429   1.239       .  S
C415        O430   1.274       .  A
C415        H440   1.081       .  S
O416        C439   1.276       .  A
O417       Mg431   2.135       .  S
O418       Mg448   2.250       .  S
C419        O432   1.261       .  A
C419        O424   1.297       .  A
C419        C461   1.488       .  S
C420        O447   1.294       .  A
Mg421       O428   2.163       .  S
Mg421       O429   2.145       .  S
Mg421       O422   2.476       .  S
Mg421       O423   2.332       .  S
Mg421       O450   2.388       .  S
O423        C427   1.279       .  A
O424       Mg431   2.452       .  S
O425        C444   1.258       .  A
O426        C446   1.266       .  A
O426       Mg442   2.267       .  S
O428       Mg442   2.135       .  S
O428        C439   1.241       .  S
O429       Mg448   2.154       .  S
O430       Mg442   2.308       .  S
Mg431       O447   2.408       .  S
O432       Mg448   2.207       .  S
H433        C438   1.083       .  S
O434       Mg442   2.126       .  S
O434        C437   1.239       .  S
H435        C437   1.081       .  S
H436        C439   1.081       .  S
O441       Mg448   2.297       .  S
C444        O449   1.293       .  A
O445        C446   1.289       .  A
C446        C473   1.501       .  S
C451       C1454   1.464       .  S
C451        N452   1.361       .  A
C451        N456   1.358   1_455  A
N452        C453   1.352       .  A
C453        N454   1.376       .  A
N454        C455   1.373   1_455  A
C455        N456   1.351       .  A
C457       C1413   1.461       .  S
C457        N458   1.362   1_545  A
C457        N462   1.353   1_545  A
N458        C459   1.352       .  A
C459        N460   1.376       .  A
N460        C461   1.377       .  A
C461        N462   1.345       .  A
C463       C1381   1.450       .  S
C463        N464   1.357       .  A
C463        N468   1.355       .  A
N464        C465   1.349       .  A
C465        N466   1.379       .  A
N466        C467   1.376       .  A
C467        N468   1.347       .  A
C469       C1349   1.477       .  S
C469        N470   1.361       .  A
C469        N474   1.364       .  A
N470        C471   1.355       .  A
C471        N472   1.376       .  A
N472        C473   1.371       .  A
C473        N474   1.352       .  A
C475       C1326   1.447       .  S
C475        N476   1.363       .  A
C475        N480   1.359       .  A
N476        C477   1.351       .  A
C477        N478   1.366       .  A
N478        C479   1.368   1_545  A
C479        N480   1.348   1_565  A
C481       C1294   1.460       .  S
C481        N482   1.360       .  A
C481        N486   1.354   1_554  A
N482        C483   1.351       .  A
C483        N484   1.376       .  A
N484        C485   1.374   1_554  A
C485        N486   1.347       .  A
C487       C1253   1.450       .  S
C487        N488   1.359       .  A
C487        N492   1.356       .  A
N488        C489   1.351       .  A
C489        N490   1.373       .  A
N490        C491   1.375       .  A
C491        N492   1.350       .  A
C493       C1221   1.440       .  S
C493        N494   1.352       .  A
C493        N498   1.357       .  A
N494        C495   1.345       .  A
C495        N496   1.377       .  A
N496        C497   1.375       .  A
C497        N498   1.350       .  A
C499       C1198   1.445       .  S
C499        N500   1.356       .  A
C499        N504   1.354       .  A
N500        C501   1.349       .  A
C501        N502   1.378       .  A
N502        C503   1.381       .  A
C503        N504   1.347       .  A
C505       C1157   1.472       .  S
C505        N506   1.362       .  A
C505        N510   1.363       .  A
N506        C507   1.352       .  A
C507        N508   1.364       .  A
N508        C509   1.364       .  A
C509        N510   1.349       .  A
C511       C1125   1.454       .  S
C511        N512   1.355       .  A
C511        N516   1.354       .  A
N512        C513   1.351       .  A
C513        N514   1.385       .  A
N514        C515   1.386       .  A
C515        N516   1.352       .  A
C517       C1102   1.453       .  S
C517        N518   1.359       .  A
C517        N522   1.353       .  A
N518        C519   1.349       .  A
C519        N520   1.377       .  A
N520        C521   1.380       .  A
C521        N522   1.346       .  A
C523       C1061   1.451       .  S
C523        N524   1.359       .  A
C523        N528   1.362       .  A
N524        C525   1.346       .  A
C525        N526   1.365       .  A
N526        C527   1.365       .  A
C527        N528   1.351       .  A
O529       Mg531   2.129       .  S
O529       Mg537   2.136       .  S
O529        C564   1.239       .  S
C530        O543   1.240       .  S
C530        O567   1.277       .  A
C530        H569   1.082       .  S
Mg531       O560   2.138       .  S
Mg531       O575   2.279       .  S
Mg531       O571   2.164       .  S
Mg531       O542   2.297       .  S
O532       Mg574   2.131       .  S
O532       Mg557   2.132       .  S
O532        C553   1.238       .  S
O533        C564   1.272       .  A
O533       Mg557   2.296       .  S
C534        O536   1.287       .  A
C534        O548   1.264       .  A
C534        C957   1.499       .  S
O535        C563   1.276       .  A
O535       Mg537   2.319       .  S
O536       Mg568   2.391       .  S
Mg537       O543   2.176       .  S
Mg537       O551   2.389       .  S
Mg537       O539   2.442       .  S
C538        O576   1.259       .  A
C538        O544   1.298       .  A
C538        C965   1.485       .  S
O539        C546   1.294       .  A
H540        C553   1.081       .  S
C541        O555   1.241       .  S
C541        O556   1.276       .  A
C541        H566   1.082       .  S
O542        C565   1.272       .  A
O543       Mg557   2.139       .  S
O544       Mg574   2.451       .  S
C545        O558   1.292       .  A
C545        O550   1.267       .  A
C545        C743   1.507       .  S
C546        O573   1.259       .  A
C546       C1037   1.479       .  S
Mg547       O554   2.125       .  S
Mg547       O555   2.145       .  S
Mg547       O548   2.254       .  S
Mg547       O549   2.299       .  S
Mg547       O576   2.189       .  S
O549        C553   1.272       .  A
O550       Mg557   2.290       .  S
O551        C570   1.291       .  A
O552        C572   1.292       .  A
O552       Mg568   2.428       .  S
O554       Mg568   2.143       .  S
O554        C565   1.239       .  S
O555       Mg574   2.172       .  S
O556       Mg568   2.320       .  S
Mg557       O573   2.163       .  S
O558       Mg574   2.397       .  S
H559        C564   1.080       .  S
O560       Mg568   2.174       .  S
O560        C563   1.240       .  S
H561        C563   1.080       .  S
H562        C565   1.081       .  S
O567       Mg574   2.324       .  S
C570        O575   1.266       .  A
C570        C977   1.503       .  S
O571        C572   1.258       .  A
C572        C981   1.474   1_455  S
O577       Mg579   2.142       .  S
O577       Mg585   2.151       .  S
O577        C612   1.239       .  S
C578        O591   1.239       .  S
C578        O615   1.274       .  A
C578        H617   1.081       .  S
Mg579       O608   2.139       .  S
Mg579       O623   2.254       .  S
Mg579       O619   2.210       .  S
Mg579       O590   2.301       .  S
O580       Mg622   2.154       .  S
O580       Mg605   2.141       .  S
O580        C601   1.239       .  S
O581        C612   1.272       .  A
O581       Mg605   2.296       .  S
C582        O584   1.291       .  A
C582        O596   1.262       .  A
C582        C995   1.494       .  S
O583        C611   1.276       .  A
O583       Mg585   2.319       .  S
O584       Mg616   2.387       .  S
Mg585       O591   2.154       .  S
Mg585       O599   2.390       .  S
Mg585       O587   2.457       .  S
C586        O624   1.262       .  A
C586        O592   1.298       .  A
C586       C1023   1.489       .  S
O587        C594   1.299       .  A
H588        C601   1.081       .  S
C589        O603   1.240       .  S
C589        O604   1.275       .  A
C589        H614   1.082       .  S
O590        C613   1.273       .  A
O591       Mg605   2.144       .  S
O592       Mg622   2.451       .  S
C593        O606   1.290       .  A
C593        O598   1.261       .  A
C593       C1031   1.493       .  S
C594        O621   1.260       .  A
C594        C627   1.488       .  S
Mg595       O602   2.151       .  S
Mg595       O603   2.144       .  S
Mg595       O596   2.241       .  S
Mg595       O597   2.294       .  S
Mg595       O624   2.208       .  S
O597        C601   1.272       .  A
O598       Mg605   2.237       .  S
O599        C618   1.291       .  A
O600        C620   1.298       .  A
O600       Mg616   2.461       .  S
O602       Mg616   2.154       .  S
O602        C613   1.240       .  S
O603       Mg622   2.157       .  S
O604       Mg616   2.316       .  S
Mg605       O621   2.198       .  S
O606       Mg622   2.387       .  S
H607        C612   1.081       .  S
O608       Mg616   2.160       .  S
O608        C611   1.240       .  S
H609        C611   1.081       .  S
H610        C613   1.081       .  S
O615       Mg622   2.313       .  S
C618        O623   1.264       .  A
C618       C1007   1.497       .  S
O619        C620   1.262       .  A
C620        C969   1.493       .  S
C625       C1701   1.450       .  S
C625        N626   1.351       .  A
C625        N630   1.360       .  A
N626        C627   1.342       .  A
C627        N628   1.377       .  A
N628        C629   1.377       .  A
C629        C672   1.499       .  S
C629        N630   1.353       .  A
O631       Mg633   2.149       .  S
O631       Mg639   2.155       .  S
O631        C666   1.240       .  S
C632        O645   1.240       .  S
C632        O669   1.276       .  A
C632        H671   1.082       .  S
Mg633       O662   2.141       .  S
Mg633       O677   2.257       .  S
Mg633       O673   2.218       .  S
Mg633       O644   2.299       .  S
O634       Mg676   2.131       .  S
O634       Mg659   2.134       .  S
O634        C655   1.240       .  S
O635        C666   1.274       .  A
O635       Mg659   2.303       .  S
C636        O638   1.291       .  A
C636        O650   1.266       .  A
C636        C681   1.500       .  S
O637        C665   1.275       .  A
O637       Mg639   2.314       .  S
O638       Mg670   2.376       .  S
Mg639       O645   2.175       .  S
Mg639       O653   2.390       .  S
Mg639       O641   2.455       .  S
C640        O678   1.260       .  A
C640        O646   1.295       .  A
C640       C1011   1.484       .  S
O641        C648   1.295       .  A
H642        C655   1.081       .  S
C643        O657   1.240       .  S
C643        O658   1.276       .  A
C643        H668   1.082       .  S
O644        C667   1.273       .  A
O645       Mg659   2.133       .  S
O646       Mg676   2.460       .  S
C647        O660   1.291       .  A
C647        O652   1.267       .  A
C647        C741   1.503       .  S
C648        O675   1.259       .  A
C648       C1035   1.482       .  S
Mg649       O656   2.146       .  S
Mg649       O657   2.133       .  S
Mg649       O650   2.286       .  S
Mg649       O651   2.302       .  S
Mg649       O678   2.178       .  S
O651        C655   1.274       .  A
O652       Mg659   2.295       .  S
O653        C672   1.290       .  A
O654        C674   1.298       .  A
O654       Mg670   2.463       .  S
O656       Mg670   2.142       .  S
O656        C667   1.239       .  S
O657       Mg676   2.170       .  S
O658       Mg670   2.322       .  S
Mg659       O675   2.167       .  S
O660       Mg676   2.381       .  S
H661        C666   1.081       .  S
O662       Mg670   2.155       .  S
O662        C665   1.240       .  S
H663        C665   1.081       .  S
H664        C667   1.081       .  S
O669       Mg676   2.322       .  S
C672        O677   1.265       .  A
O673        C674   1.264       .  A
C674       C1029   1.495       .  S
C679       C1070   1.455       .  S
C679        N680   1.350       .  A
C679        N684   1.352       .  A
N680        C681   1.349       .  A
C681        N682   1.385       .  A
N682        C683   1.384       .  A
C683        C696   1.503       .  S
C683        N684   1.347       .  A
C685       C1262   1.458       .  S
C685        N686   1.356   1_556  A
C685        N690   1.352   1_556  A
N686        C687   1.352       .  A
C687        C732   1.513       .  S
C687        N688   1.387       .  A
N688        C689   1.386       .  A
C689        C761   1.509       .  S
C689        N690   1.349       .  A
O691       Mg693   2.129       .  S
O691       Mg699   2.132       .  S
O691        C726   1.239       .  S
C692        O705   1.240       .  S
C692        O729   1.276       .  A
C692        H731   1.081       .  S
Mg693       O722   2.136       .  S
Mg693       O737   2.300       .  S
Mg693       O733   2.155       .  S
Mg693       O704   2.304       .  S
O694       Mg736   2.147       .  S
O694       Mg719   2.140       .  S
O694        C715   1.238       .  S
O695        C726   1.272       .  A
O695       Mg719   2.296       .  S
C696        O698   1.292       .  A
C696        O710   1.266       .  A
O697        C725   1.277       .  A
O697       Mg699   2.327       .  S
O698       Mg730   2.387       .  S
Mg699       O705   2.170       .  S
Mg699       O713   2.405       .  S
Mg699       O701   2.456       .  S
C700        O738   1.260       .  A
C700        O706   1.293       .  A
C700       C1013   1.480       .  S
O701        C708   1.298       .  A
H702        C715   1.081       .  S
C703        O717   1.239       .  S
C703        O718   1.275       .  A
C703        H728   1.082       .  S
O704        C727   1.273       .  A
O705       Mg719   2.145       .  S
O706       Mg736   2.439       .  S
C707        O720   1.287       .  A
C707        O712   1.264       .  A
C707       C1019   1.491       .  S
C708        O735   1.261       .  A
C708        C999   1.488   1_554  S
Mg709       O716   2.134       .  S
Mg709       O717   2.139       .  S
Mg709       O710   2.292       .  S
Mg709       O711   2.295       .  S
Mg709       O738   2.171       .  S
O711        C715   1.271       .  A
O712       Mg719   2.255       .  S
O713        C732   1.293       .  A
O714        C734   1.294       .  A
O714       Mg730   2.441       .  S
O716       Mg730   2.131       .  S
O716        C727   1.239       .  S
O717       Mg736   2.163       .  S
O718       Mg730   2.316       .  S
Mg719       O735   2.194       .  S
O720       Mg736   2.367       .  S
H721        C726   1.080       .  S
O722       Mg730   2.186       .  S
O722        C725   1.240       .  S
H723        C725   1.080       .  S
H724        C727   1.081       .  S
O729       Mg736   2.319       .  S
C732        O737   1.268       .  A
O733        C734   1.257       .  A
C734        C989   1.476       .  S
C739       C1390   1.455       .  S
C739        N740   1.349       .  A
C739        N744   1.355       .  A
N740        C741   1.347       .  A
C741        N742   1.384       .  A
N742        C743   1.386       .  A
C743        N744   1.351       .  A
O745       Mg747   2.143       .  S
O745       Mg753   2.152       .  S
O745        C780   1.241       .  S
C746        O759   1.240       .  S
C746        O783   1.275       .  A
C746        H785   1.080       .  S
Mg747       O776   2.140       .  S
Mg747       O791   2.263       .  S
Mg747       O787   2.203       .  S
Mg747       O758   2.306       .  S
O748       Mg790   2.140       .  S
O748       Mg773   2.141       .  S
O748        C769   1.241       .  S
O749        C780   1.274       .  A
O749       Mg773   2.303       .  S
C750        O752   1.293       .  A
C750        O764   1.269       .  A
C750       C1047   1.505       .  S
O751        C779   1.276       .  A
O751       Mg753   2.319       .  S
O752       Mg784   2.388       .  S
Mg753       O759   2.175       .  S
Mg753       O767   2.399       .  S
Mg753       O755   2.457       .  S
C754        O792   1.263       .  A
C754        O760   1.297       .  A
C754        C797   1.493       .  S
O755        C762   1.295       .  A
H756        C769   1.080       .  S
C757        O771   1.240       .  S
C757        O772   1.276       .  A
C757        H782   1.081       .  S
O758        C781   1.274       .  A
O759       Mg773   2.136       .  S
O760       Mg790   2.464       .  S
C761        O774   1.293       .  A
C761        O766   1.269       .  A
C762        O789   1.260       .  A
C762        C987   1.483       .  S
Mg763       O770   2.156       .  S
Mg763       O771   2.143       .  S
Mg763       O764   2.300       .  S
Mg763       O765   2.298       .  S
Mg763       O792   2.196       .  S
O765        C769   1.274       .  A
O766       Mg773   2.304       .  S
O767        C786   1.290       .  A
O768        C788   1.300       .  A
O768       Mg784   2.474       .  S
O770       Mg784   2.142       .  S
O770        C781   1.240       .  S
O771       Mg790   2.177       .  S
O772       Mg784   2.322       .  S
Mg773       O789   2.172       .  S
O774       Mg790   2.397       .  S
H775        C780   1.081       .  S
O776       Mg784   2.165       .  S
O776        C779   1.240       .  S
H777        C779   1.082       .  S
H778        C781   1.081       .  S
O783       Mg790   2.318       .  S
C786        O791   1.265       .  A
C786       C1025   1.503       .  S
O787        C788   1.261       .  A
C788        C993   1.494       .  S
C793       C1797   1.461       .  S
C793        N794   1.361       .  A
C793        N798   1.363   1_556  A
N794        C795   1.346   1_556  A
C795        C870   1.483   1_554  S
C795        N796   1.369       .  A
N796        C797   1.370       .  A
C797        N798   1.353       .  A
O799       Mg801   2.138       .  S
O799       Mg807   2.134       .  S
O799        C834   1.239       .  S
C800        O813   1.240       .  S
C800        O837   1.275       .  A
C800        H839   1.081       .  S
Mg801       O830   2.132       .  S
Mg801       O845   2.313       .  S
Mg801       O841   2.170       .  S
Mg801       O812   2.302       .  S
O802       Mg844   2.157       .  S
O802       Mg827   2.153       .  S
O802        C823   1.240       .  S
O803        C834   1.273       .  A
O803       Mg827   2.298       .  S
C804        O806   1.292       .  A
C804        O818   1.268       .  A
C804       C1053   1.508       .  S
O805        C833   1.276       .  A
O805       Mg807   2.324       .  S
O806       Mg838   2.389       .  S
Mg807       O813   2.161       .  S
Mg807       O821   2.380       .  S
Mg807       O809   2.451       .  S
C808        O846   1.259       .  A
C808        O814   1.296       .  A
C808        C851   1.484       .  S
O809        C816   1.297       .  A
H810        C823   1.081       .  S
C811        O825   1.240       .  S
C811        O826   1.276       .  A
C811        H836   1.082       .  S
O812        C835   1.274       .  A
O813       Mg827   2.145       .  S
O814       Mg844   2.459       .  S
C815        O828   1.290       .  A
C815        O820   1.263       .  A
C815        C971   1.497       .  S
C816        O843   1.262       .  A
C816       C1005   1.488       .  S
Mg817       O824   2.135       .  S
Mg817       O825   2.133       .  S
Mg817       O818   2.303       .  S
Mg817       O819   2.305       .  S
Mg817       O846   2.169       .  S
O819        C823   1.274       .  A
O820       Mg827   2.247       .  S
O821        C840   1.291       .  A
O822        C842   1.295       .  A
O822       Mg838   2.460       .  S
O824       Mg838   2.132       .  S
O824        C835   1.241       .  S
O825       Mg844   2.170       .  S
O826       Mg838   2.319       .  S
Mg827       O843   2.212       .  S
O828       Mg844   2.391       .  S
H829        C834   1.081       .  S
O830       Mg838   2.181       .  S
O830        C833   1.240       .  S
H831        C833   1.080       .  S
H832        C835   1.080       .  S
O837       Mg844   2.315       .  S
C840        O845   1.271       .  A
C840        C975   1.506       .  S
O841        C842   1.261       .  A
C842        C983   1.485       .  S
C847       C1678   1.449       .  S
C847        N848   1.357   1_545  A
C847        N852   1.363       .  A
N848        C849   1.347       .  A
C849        C862   1.477       .  S
C849        N850   1.368   1_565  A
N850        C851   1.367       .  A
C851        N852   1.350       .  A
O853       Mg855   2.146       .  S
O853       Mg861   2.138       .  S
O853        C888   1.239       .  S
C854        O867   1.239       .  S
C854        O891   1.275       .  A
C854        H893   1.082       .  S
Mg855       O884   2.142       .  S
Mg855       O899   2.279       .  S
Mg855       O895   2.222       .  S
Mg855       O866   2.299       .  S
O856       Mg898   2.139       .  S
O856       Mg881   2.134       .  S
O856        C877   1.239       .  S
O857        C888   1.273       .  A
O857       Mg881   2.310       .  S
C858        O860   1.293       .  A
C858        O872   1.267       .  A
C858       C1055   1.508       .  S
O859        C887   1.279       .  A
O859       Mg861   2.329       .  S
O860       Mg892   2.398       .  S
Mg861       O867   2.168       .  S
Mg861       O875   2.380       .  S
Mg861       O863   2.468       .  S
C862        O900   1.258       .  A
C862        O868   1.293       .  A
O863        C870   1.296       .  A
H864        C877   1.081       .  S
C865        O879   1.240       .  S
C865        O880   1.276       .  A
C865        H890   1.082       .  S
O866        C889   1.272       .  A
O867       Mg881   2.120       .  S
O868       Mg898   2.435       .  S
C869        O882   1.291       .  A
C869        O874   1.263       .  A
C869       C1049   1.503       .  S
C870        O897   1.254       .  A
Mg871       O878   2.138       .  S
Mg871       O879   2.139       .  S
Mg871       O872   2.293       .  S
Mg871       O873   2.301       .  S
Mg871       O900   2.165       .  S
O873        C877   1.273       .  A
O874       Mg881   2.276       .  S
O875        C894   1.288       .  A
O876        C896   1.299       .  A
O876       Mg892   2.470       .  S
O878       Mg892   2.132       .  S
O878        C889   1.239       .  S
O879       Mg898   2.182       .  S
O880       Mg892   2.325       .  S
Mg881       O897   2.165       .  S
O882       Mg898   2.390       .  S
H883        C888   1.081       .  S
O884       Mg892   2.177       .  S
O884        C887   1.243       .  S
H885        C887   1.081       .  S
H886        C889   1.081       .  S
O891       Mg898   2.319       .  S
C894        O899   1.269       .  A
C894       C1043   1.499       .  S
O895        C896   1.266       .  A
C896        C953   1.498   1_655  S
O901       Mg903   2.139       .  S
O901       Mg909   2.147       .  S
O901        C936   1.239       .  S
C902        O915   1.240       .  S
C902        O939   1.275       .  A
C902        H941   1.081       .  S
Mg903       O932   2.138       .  S
Mg903       O947   2.272       .  S
Mg903       O943   2.199       .  S
Mg903       O914   2.304       .  S
O904       Mg946   2.151       .  S
O904       Mg929   2.138       .  S
O904        C925   1.239       .  S
O905        C936   1.273       .  A
O905       Mg929   2.302       .  S
C906        O908   1.291       .  A
C906        O920   1.264       .  A
C906        C963   1.502       .  S
O907        C935   1.277       .  A
O907       Mg909   2.322       .  S
O908       Mg940   2.406       .  S
Mg909       O915   2.168       .  S
Mg909       O923   2.394       .  S
Mg909       O911   2.443       .  S
C910        O948   1.263       .  A
C910        O916   1.295       .  A
C910        C959   1.485       .  S
O911        C918   1.296       .  A
H912        C925   1.081       .  S
C913        O927   1.241       .  S
C913        O928   1.276       .  A
C913        H938   1.081       .  S
O914        C937   1.273       .  A
O915       Mg929   2.141       .  S
O916       Mg946   2.437       .  S
C917        O930   1.289       .  A
C917        O922   1.266       .  A
C917        C951   1.501       .  S
C918        O945   1.262       .  A
C918       C1041   1.485       .  S
Mg919       O926   2.145       .  S
Mg919       O927   2.143       .  S
Mg919       O920   2.253       .  S
Mg919       O921   2.298       .  S
Mg919       O948   2.213       .  S
O921        C925   1.273       .  A
O922       Mg929   2.265       .  S
O923        C942   1.289       .  A
O924        C944   1.298       .  A
O924       Mg940   2.464       .  S
O926       Mg940   2.149       .  S
O926        C937   1.239       .  S
O927       Mg946   2.170       .  S
O928       Mg940   2.320       .  S
Mg929       O945   2.204       .  S
O930       Mg946   2.394       .  S
H931        C936   1.080       .  S
O932       Mg940   2.175       .  S
O932        C935   1.241       .  S
H933        C935   1.081       .  S
H934        C937   1.081       .  S
O939       Mg946   2.315       .  S
C942        O947   1.267       .  A
C942       C1001   1.503       .  S
O943        C944   1.262       .  A
C944       C1017   1.489       .  S
C949       C1445   1.465       .  S
C949        N950   1.360       .  A
C949        N954   1.362       .  A
N950        C951   1.351       .  A
C951        N952   1.373       .  A
N952        C953   1.376       .  A
C953        N954   1.355       .  A
C955       C1134   1.453       .  S
C955        N956   1.362   1_655  A
C955        N960   1.353   1_655  A
N956        C957   1.355       .  A
C957        N958   1.375       .  A
N958        C959   1.373       .  A
C959        N960   1.346       .  A
C961       C1166   1.464       .  S
C961        N962   1.364       .  A
C961        N966   1.351       .  A
N962        C963   1.352       .  A
C963        N964   1.375       .  A
N964        C965   1.376       .  A
C965        N966   1.344       .  A
C967       C1189   1.452       .  S
C967        N968   1.356   1_565  A
C967        N972   1.356   1_565  A
N968        C969   1.348       .  A
C969        N970   1.378       .  A
N970        C971   1.377       .  A
C971        N972   1.349       .  A
C973       C1486   1.447       .  S
C973        N974   1.352       .  A
C973        N978   1.353   1_655  A
N974        C975   1.351       .  A
C975        N976   1.383       .  A
N976        C977   1.384   1_655  A
C977        N978   1.350       .  A
C979       C1518   1.449       .  S
C979        N980   1.356   1_655  A
C979        N984   1.366       .  A
N980        C981   1.344   1_455  A
C981        N982   1.364       .  A
N982        C983   1.366       .  A
C983        N984   1.355       .  A
C985       C1230   1.439       .  S
C985        N986   1.361       .  A
C985        N990   1.356       .  A
N986        C987   1.350       .  A
C987        N988   1.367       .  A
N988        C989   1.368       .  A
C989        N990   1.345       .  A
C991       C1637   1.444       .  S
C991        N992   1.356       .  A
C991        N996   1.352   1_565  A
N992        C993   1.347       .  A
C993        N994   1.380       .  A
N994        C995   1.378   1_565  A
C995        N996   1.345       .  A
C997       C1582   1.460       .  S
C997        N998   1.356       .  A
C997       N1002   1.362       .  A
N998        C999   1.347       .  A
C999       N1000   1.376       .  A
N1000      C1001   1.373       .  A
C1001      N1002   1.354       .  A
C1003      C1093   1.456       .  S
C1003      N1004   1.355       .  A
C1003      N1008   1.357       .  A
N1004      C1005   1.345       .  A
C1005      N1006   1.377       .  A
N1006      C1007   1.377       .  A
C1007      N1008   1.351       .  A
C1009      C1774   1.448       .  S
C1009      N1010   1.363       .  A
C1009      N1014   1.359       .  A
N1010      C1011   1.351       .  A
C1011      N1012   1.366       .  A
N1012      C1013   1.368       .  A
C1013      N1014   1.349       .  A
C1015      C1605   1.448       .  S
C1015      N1016   1.358       .  A
C1015      N1020   1.353   1_556  A
N1016      C1017   1.352       .  A
C1017      N1018   1.377       .  A
N1018      C1019   1.373   1_556  A
C1019      N1020   1.345       .  A
C1021      C1550   1.447       .  S
C1021      N1022   1.353   1_565  A
C1021      N1026   1.360       .  A
N1022      C1023   1.346       .  A
C1023      N1024   1.378   1_545  A
N1024      C1025   1.377       .  A
C1025      N1026   1.354       .  A
C1027      C1742   1.450       .  S
C1027      N1028   1.358       .  A
C1027      N1032   1.354       .  A
N1028      C1029   1.351       .  A
C1029      N1030   1.378       .  A
N1030      C1031   1.376       .  A
C1031      N1032   1.346       .  A
C1033      C1422   1.457       .  S
C1033      N1034   1.364       .  A
C1033      N1038   1.358       .  A
N1034      C1035   1.349       .  A
C1035      N1036   1.366       .  A
N1036      C1037   1.368       .  A
C1037      N1038   1.348       .  A
C1039      C1358   1.463       .  S
C1039      N1040   1.357   1_554  A
C1039      N1044   1.362   1_454  A
N1040      C1041   1.347       .  A
C1041      N1042   1.373       .  A
N1042      C1043   1.372   1_455  A
C1043      N1044   1.356       .  A
C1045      C1285   1.461       .  S
C1045      N1046   1.354   1_545  A
C1045      N1050   1.350   1_544  A
N1046      C1047   1.350       .  A
C1047      N1048   1.385       .  A
N1048      C1049   1.386   1_554  A
C1049      N1050   1.346       .  A
C1051      C1317   1.447       .  S
C1051      N1052   1.351   1_455  A
C1051      N1056   1.352   1_445  A
N1052      C1053   1.350       .  A
C1053      N1054   1.386       .  A
N1054      C1055   1.388   1_545  A
C1055      N1056   1.350       .  A
C1057      H1067   1.084       .  S
C1057      C1058   1.399       .  A
C1057      C1062   1.396       .  A
C1058      C1063   1.453       .  S
C1058      C1059   1.410       .  A
C1059      C1060   1.393       .  A
C1059      C1064   1.521       .  S
C1060      H1065   1.084       .  S
C1060      C1061   1.401       .  A
C1061      C1062   1.413       .  A
C1062      C1066   1.519       .  S
C1063      C1068   1.408       .  A
C1063      C1072   1.398       .  A
C1064      F1080   1.382       .  S
C1064      F1081   1.382       .  S
C1064      F1082   1.385       .  S
C1066      F1077   1.385       .  S
C1066      F1078   1.382       .  S
C1066      F1079   1.384       .  S
C1068      C1069   1.394       .  A
C1068      C1073   1.520       .  S
C1069      H1074   1.084       .  S
C1069      C1070   1.404       .  A
C1070      C1071   1.416       .  A
C1071      C1072   1.395       .  A
C1071      C1075   1.521       .  S
C1072      H1076   1.084       .  S
C1073      F1086   1.385       .  S
C1073      F1087   1.382       .  S
C1073      F1088   1.382       .  S
C1075      F1083   1.385       .  S
C1075      F1084   1.383       .  S
C1075      F1085   1.383       .  S
C1089      H1099   1.084       .  S
C1089      C1090   1.395       .  A
C1089      C1094   1.396       .  A
C1090      C1095   1.453       .  S
C1090      C1091   1.409       .  A
C1091      C1092   1.394       .  A
C1091      C1096   1.521       .  S
C1092      H1097   1.084       .  S
C1092      C1093   1.403       .  A
C1093      C1094   1.418       .  A
C1094      C1098   1.520       .  S
C1095      C1100   1.410       .  A
C1095      C1104   1.398       .  A
C1096      F1112   1.383       .  S
C1096      F1113   1.383       .  S
C1096      F1114   1.384       .  S
C1098      F1109   1.383       .  S
C1098      F1110   1.385       .  S
C1098      F1111   1.383       .  S
C1100      C1101   1.390       .  A
C1100      C1105   1.523       .  S
C1101      H1106   1.083       .  S
C1101      C1102   1.400       .  A
C1102      C1103   1.416       .  A
C1103      C1104   1.399       .  A
C1103      C1107   1.520       .  S
C1104      H1108   1.083       .  S
C1105      F1118   1.384       .  S
C1105      F1119   1.382       .  S
C1105      F1120   1.382       .  S
C1107      F1115   1.384       .  S
C1107      F1116   1.383       .  S
C1107      F1117   1.383       .  S
C1121      H1131   1.084       .  S
C1121      C1122   1.399       .  A
C1121      C1126   1.400       .  A
C1122      C1127   1.461       .  S
C1122      C1123   1.413       .  A
C1123      C1124   1.397       .  A
C1123      C1128   1.520       .  S
C1124      H1129   1.084       .  S
C1124      C1125   1.398       .  A
C1125      C1126   1.413       .  A
C1126      C1130   1.518       .  S
C1127      C1132   1.414       .  A
C1127      C1136   1.396       .  A
C1128      F1144   1.382       .  S
C1128      F1145   1.382       .  S
C1128      F1146   1.384       .  S
C1130      F1141   1.382       .  S
C1130      F1142   1.385       .  S
C1130      F1143   1.384       .  S
C1132      C1133   1.398       .  A
C1132      C1137   1.520       .  S
C1133      H1138   1.084       .  S
C1133      C1134   1.397       .  A
C1134      C1135   1.417       .  A
C1135      C1136   1.397       .  A
C1135      C1139   1.521       .  S
C1136      H1140   1.084       .  S
C1137      F1150   1.385       .  S
C1137      F1151   1.382       .  S
C1137      F1152   1.382       .  S
C1139      F1147   1.382       .  S
C1139      F1148   1.383       .  S
C1139      F1149   1.385       .  S
C1153      H1163   1.084       .  S
C1153      C1154   1.394       .  A
C1153      C1158   1.399       .  A
C1154      C1159   1.457       .  S
C1154      C1155   1.409       .  A
C1155      C1156   1.395       .  A
C1155      C1160   1.522       .  S
C1156      H1161   1.082       .  S
C1156      C1157   1.407       .  A
C1157      C1158   1.423       .  A
C1158      C1162   1.520       .  S
C1159      C1164   1.411       .  A
C1159      C1168   1.394       .  A
C1160      F1176   1.383       .  S
C1160      F1177   1.383       .  S
C1160      F1178   1.384       .  S
C1162      F1173   1.385       .  S
C1162      F1174   1.383       .  S
C1162      F1175   1.383       .  S
C1164      C1165   1.392       .  A
C1164      C1169   1.521       .  S
C1165      H1170   1.083       .  S
C1165      C1166   1.401       .  A
C1166      C1167   1.425       .  A
C1167      C1168   1.399       .  A
C1167      C1171   1.523       .  S
C1168      H1172   1.083       .  S
C1169      F1182   1.385       .  S
C1169      F1183   1.382       .  S
C1169      F1184   1.382       .  S
C1171      F1179   1.385       .  S
C1171      F1180   1.383       .  S
C1171      F1181   1.384       .  S
C1185      H1195   1.084       .  S
C1185      C1186   1.398       .  A
C1185      C1190   1.393       .  A
C1186      C1191   1.453       .  S
C1186      C1187   1.408       .  A
C1187      C1188   1.397       .  A
C1187      C1192   1.520       .  S
C1188      H1193   1.083       .  S
C1188      C1189   1.403       .  A
C1189      C1190   1.414       .  A
C1190      C1194   1.521       .  S
C1191      C1196   1.412       .  A
C1191      C1200   1.399       .  A
C1192      F1208   1.382       .  S
C1192      F1209   1.382       .  S
C1192      F1210   1.385       .  S
C1194      F1205   1.382       .  S
C1194      F1206   1.385       .  S
C1194      F1207   1.383       .  S
C1196      C1197   1.394       .  A
C1196      C1201   1.520       .  S
C1197      H1202   1.084       .  S
C1197      C1198   1.398       .  A
C1198      C1199   1.412       .  A
C1199      C1200   1.395       .  A
C1199      C1203   1.520       .  S
C1200      H1204   1.084       .  S
C1201      F1214   1.385       .  S
C1201      F1215   1.382       .  S
C1201      F1216   1.382       .  S
C1203      F1211   1.382       .  S
C1203      F1212   1.383       .  S
C1203      F1213   1.385       .  S
C1217      H1227   1.084       .  S
C1217      C1218   1.398       .  A
C1217      C1222   1.396       .  A
C1218      C1223   1.449       .  S
C1218      C1219   1.414       .  A
C1219      C1220   1.392       .  A
C1219      C1224   1.523       .  S
C1220      H1225   1.084       .  S
C1220      C1221   1.395       .  A
C1221      C1222   1.411       .  A
C1222      C1226   1.519       .  S
C1223      C1228   1.409       .  A
C1223      C1232   1.398       .  A
C1224      F1240   1.382       .  S
C1224      F1241   1.381       .  S
C1224      F1242   1.385       .  S
C1226      F1237   1.383       .  S
C1226      F1238   1.385       .  S
C1226      F1239   1.382       .  S
C1228      C1229   1.396       .  A
C1228      C1233   1.519       .  S
C1229      H1234   1.084       .  S
C1229      C1230   1.400       .  A
C1230      C1231   1.408       .  A
C1231      C1232   1.391       .  A
C1231      C1235   1.518       .  S
C1232      H1236   1.084       .  S
C1233      F1246   1.385       .  S
C1233      F1247   1.382       .  S
C1233      F1248   1.382       .  S
C1235      F1243   1.383       .  S
C1235      F1244   1.382       .  S
C1235      F1245   1.385       .  S
C1249      H1259   1.084       .  S
C1249      C1250   1.400       .  A
C1249      C1254   1.395       .  A
C1250      C1255   1.464       .  S
C1250      C1251   1.415       .  A
C1251      C1252   1.400       .  A
C1251      C1256   1.519       .  S
C1252      H1257   1.084       .  S
C1252      C1253   1.398       .  A
C1253      C1254   1.410       .  A
C1254      C1258   1.520       .  S
C1255      C1260   1.412       .  A
C1255      C1264   1.400       .  A
C1256      F1272   1.382       .  S
C1256      F1273   1.382       .  S
C1256      F1274   1.384       .  S
C1258      F1269   1.384       .  S
C1258      F1270   1.382       .  S
C1258      F1271   1.384       .  S
C1260      C1261   1.399       .  A
C1260      C1265   1.520       .  S
C1261      H1266   1.084       .  S
C1261      C1262   1.402       .  A
C1262      C1263   1.414       .  A
C1263      C1264   1.397       .  A
C1263      C1267   1.520       .  S
C1264      H1268   1.084       .  S
C1265      F1278   1.385       .  S
C1265      F1279   1.381       .  S
C1265      F1280   1.382       .  S
C1267      F1275   1.385       .  S
C1267      F1276   1.383       .  S
C1267      F1277   1.382       .  S
C1281      H1291   1.084       .  S
C1281      C1282   1.396   1_556  A
C1281      C1286   1.396       .  A
C1282      C1287   1.456       .  S
C1282      C1283   1.410       .  A
C1283      C1284   1.394       .  A
C1283      C1288   1.520       .  S
C1284      H1289   1.083       .  S
C1284      C1285   1.403       .  A
C1285      C1286   1.420   1_554  A
C1286      C1290   1.521       .  S
C1287      C1292   1.412   1_554  A
C1287      C1296   1.394       .  A
C1288      F1304   1.382       .  S
C1288      F1305   1.382       .  S
C1288      F1306   1.385       .  S
C1290      F1301   1.382       .  S
C1290      F1302   1.385       .  S
C1290      F1303   1.384       .  S
C1292      C1293   1.396       .  A
C1292      C1297   1.521       .  S
C1293      H1298   1.083       .  S
C1293      C1294   1.402   1_556  A
C1294      C1295   1.420       .  A
C1295      C1296   1.396       .  A
C1295      C1299   1.521       .  S
C1296      H1300   1.084       .  S
C1297      F1310   1.385       .  S
C1297      F1311   1.382       .  S
C1297      F1312   1.383   1_556  S
C1299      F1307   1.382       .  S
C1299      F1308   1.384       .  S
C1299      F1309   1.385       .  S
C1313      H1323   1.083       .  S
C1313      C1314   1.398       .  A
C1313      C1318   1.398       .  A
C1314      C1319   1.458       .  S
C1314      C1315   1.415       .  A
C1315      C1316   1.396       .  A
C1315      C1320   1.521       .  S
C1316      H1321   1.084       .  S
C1316      C1317   1.396       .  A
C1317      C1318   1.412       .  A
C1318      C1322   1.518       .  S
C1319      C1324   1.412   1_545  A
C1319      C1328   1.399       .  A
C1320      F1336   1.382       .  S
C1320      F1337   1.382   1_545  S
C1320      F1338   1.384       .  S
C1322      F1333   1.384   1_545  S
C1322      F1334   1.382       .  S
C1322      F1335   1.383   1_545  S
C1324      C1325   1.397       .  A
C1324      C1329   1.520       .  S
C1325      H1330   1.084       .  S
C1325      C1326   1.399   1_565  A
C1326      C1327   1.410       .  A
C1327      C1328   1.397       .  A
C1327      C1331   1.518       .  S
C1328      H1332   1.084       .  S
C1329      F1342   1.385       .  S
C1329      F1343   1.382       .  S
C1329      F1344   1.382       .  S
C1331      F1339   1.384       .  S
C1331      F1340   1.384       .  S
C1331      F1341   1.382       .  S
C1345      H1355   1.083   1_455  S
C1345      C1346   1.398       .  A
C1345      C1350   1.402       .  A
C1346      C1351   1.468       .  S
C1346      C1347   1.411       .  A
C1347      C1348   1.399       .  A
C1347      C1352   1.520       .  S
C1348      H1353   1.084       .  S
C1348      C1349   1.406       .  A
C1349      C1350   1.421       .  A
C1350      C1354   1.519   1_455  S
C1351      C1356   1.410       .  A
C1351      C1360   1.403       .  A
C1352      F1368   1.382       .  S
C1352      F1369   1.382       .  S
C1352      F1370   1.384       .  S
C1354      F1365   1.385       .  S
C1354      F1366   1.383       .  S
C1354      F1367   1.383       .  S
C1356      C1357   1.399       .  A
C1356      C1361   1.520       .  S
C1357      H1362   1.084       .  S
C1357      C1358   1.405       .  A
C1358      C1359   1.412       .  A
C1359      C1360   1.401       .  A
C1359      C1363   1.519       .  S
C1360      H1364   1.084       .  S
C1361      F1374   1.385       .  S
C1361      F1375   1.382       .  S
C1361      F1376   1.382       .  S
C1363      F1371   1.385       .  S
C1363      F1372   1.381   1_455  S
C1363      F1373   1.383       .  S
C1377      H1387   1.084       .  S
C1377      C1378   1.398       .  A
C1377      C1382   1.392       .  A
C1378      C1383   1.454       .  S
C1378      C1379   1.411       .  A
C1379      C1380   1.397       .  A
C1379      C1384   1.519       .  S
C1380      H1385   1.084       .  S
C1380      C1381   1.401       .  A
C1381      C1382   1.415       .  A
C1382      C1386   1.521       .  S
C1383      C1388   1.410       .  A
C1383      C1392   1.397       .  A
C1384      F1400   1.382       .  S
C1384      F1401   1.381       .  S
C1384      F1402   1.385       .  S
C1386      F1397   1.385       .  S
C1386      F1398   1.383       .  S
C1386      F1399   1.383       .  S
C1388      C1389   1.398       .  A
C1388      C1393   1.520       .  S
C1389      H1394   1.084       .  S
C1389      C1390   1.403       .  A
C1390      C1391   1.415       .  A
C1391      C1392   1.393       .  A
C1391      C1395   1.521       .  S
C1392      H1396   1.084       .  S
C1393      F1406   1.384       .  S
C1393      F1407   1.382       .  S
C1393      F1408   1.382       .  S
C1395      F1403   1.385       .  S
C1395      F1404   1.384       .  S
C1395      F1405   1.382       .  S
C1409      H1419   1.084       .  S
C1409      C1410   1.393       .  A
C1409      C1414   1.397       .  A
C1410      C1415   1.454       .  S
C1410      C1411   1.412       .  A
C1411      C1412   1.394       .  A
C1411      C1416   1.522       .  S
C1412      H1417   1.083       .  S
C1412      C1413   1.401       .  A
C1413      C1414   1.424       .  A
C1414      C1418   1.523       .  S
C1415      C1420   1.408       .  A
C1415      C1424   1.396       .  A
C1416      F1432   1.382       .  S
C1416      F1433   1.382       .  S
C1416      F1434   1.384       .  S
C1418      F1429   1.385       .  S
C1418      F1430   1.384       .  S
C1418      F1431   1.383       .  S
C1420      C1421   1.395       .  A
C1420      C1425   1.520       .  S
C1421      H1426   1.084       .  S
C1421      C1422   1.403       .  A
C1422      C1423   1.417       .  A
C1423      C1424   1.396       .  A
C1423      C1427   1.521       .  S
C1424      H1428   1.084       .  S
C1425      F1438   1.385       .  S
C1425      F1439   1.382       .  S
C1425      F1440   1.382       .  S
C1427      F1435   1.385       .  S
C1427      F1436   1.383       .  S
C1427      F1437   1.383       .  S
C1441      H1451   1.084       .  S
C1441      C1442   1.398       .  A
C1441      C1446   1.399       .  A
C1442      C1447   1.467       .  S
C1442      C1443   1.414   1_455  A
C1443      C1444   1.402       .  A
C1443      C1448   1.520       .  S
C1444      H1449   1.084       .  S
C1444      C1445   1.402   1_655  A
C1445      C1446   1.416       .  A
C1446      C1450   1.518       .  S
C1447      C1452   1.411       .  A
C1447      C1456   1.400       .  A
C1448      F1464   1.382       .  S
C1448      F1465   1.382       .  S
C1448      F1466   1.384       .  S
C1450      F1461   1.385       .  S
C1450      F1462   1.382       .  S
C1450      F1463   1.383       .  S
C1452      C1453   1.400       .  A
C1452      C1457   1.519       .  S
C1453      H1458   1.083       .  S
C1453      C1454   1.404       .  A
C1454      C1455   1.416       .  A
C1455      C1456   1.399       .  A
C1455      C1459   1.520   1_455  S
C1456      H1460   1.084   1_455  S
C1457      F1470   1.385       .  S
C1457      F1471   1.382       .  S
C1457      F1472   1.382       .  S
C1459      F1467   1.385       .  S
C1459      F1468   1.383   1_655  S
C1459      F1469   1.382       .  S
C1473      H1483   1.084       .  S
C1473      C1474   1.400   1_455  A
C1473      C1478   1.396       .  A
C1474      C1479   1.459       .  S
C1474      C1475   1.413       .  A
C1475      C1476   1.398       .  A
C1475      C1480   1.520       .  S
C1476      H1481   1.084       .  S
C1476      C1477   1.398       .  A
C1477      C1478   1.407   1_655  A
C1478      C1482   1.517       .  S
C1479      C1484   1.412       .  A
C1479      C1488   1.401       .  A
C1480      F1496   1.382       .  S
C1480      F1497   1.382       .  S
C1480      F1498   1.385       .  S
C1482      F1493   1.383       .  S
C1482      F1494   1.384       .  S
C1482      F1495   1.383       .  S
C1484      C1485   1.397       .  A
C1484      C1489   1.520   1_655  S
C1485      H1490   1.084   1_655  S
C1485      C1486   1.398       .  A
C1486      C1487   1.409       .  A
C1487      C1488   1.397       .  A
C1487      C1491   1.517       .  S
C1488      H1492   1.084       .  S
C1489      F1502   1.385       .  S
C1489      F1503   1.382       .  S
C1489      F1504   1.382   1_455  S
C1491      F1499   1.383       .  S
C1491      F1500   1.383       .  S
C1491      F1501   1.385       .  S
C1505      H1515   1.084       .  S
C1505      C1506   1.399   1_655  A
C1505      C1510   1.399       .  A
C1506      C1511   1.454   1_455  S
C1506      C1507   1.412       .  A
C1507      C1508   1.390       .  A
C1507      C1512   1.522       .  S
C1508      H1513   1.084       .  S
C1508      C1509   1.399   1_455  A
C1509      C1510   1.412       .  A
C1510      C1514   1.517       .  S
C1511      C1516   1.413       .  A
C1511      C1520   1.395   1_655  A
C1512      F1528   1.382       .  S
C1512      F1529   1.382   1_455  S
C1512      F1530   1.385       .  S
C1514      F1525   1.382       .  S
C1514      F1526   1.385       .  S
C1514      F1527   1.383   1_655  S
C1516      C1517   1.396       .  A
C1516      C1521   1.521       .  S
C1517      H1522   1.084       .  S
C1517      C1518   1.398       .  A
C1518      C1519   1.416   1_655  A
C1519      C1520   1.395       .  A
C1519      C1523   1.520       .  S
C1520      H1524   1.084       .  S
C1521      F1534   1.384       .  S
C1521      F1535   1.383       .  S
C1521      F1536   1.383       .  S
C1523      F1531   1.382       .  S
C1523      F1532   1.383       .  S
C1523      F1533   1.385       .  S
C1537      H1547   1.083       .  S
C1537      C1538   1.400       .  A
C1537      C1542   1.400       .  A
C1538      C1543   1.459       .  S
C1538      C1539   1.414   1_545  A
C1539      C1540   1.395       .  A
C1539      C1544   1.521       .  S
C1540      H1545   1.084       .  S
C1540      C1541   1.396   1_565  A
C1541      C1542   1.411       .  A
C1542      C1546   1.518       .  S
C1543      C1548   1.412       .  A
C1543      C1552   1.398   1_545  A
C1544      F1560   1.382       .  S
C1544      F1561   1.382       .  S
C1544      F1562   1.384       .  S
C1546      F1557   1.385       .  S
C1546      F1558   1.384       .  S
C1546      F1559   1.383       .  S
C1548      C1549   1.399       .  A
C1548      C1553   1.518       .  S
C1549      H1554   1.084       .  S
C1549      C1550   1.398   1_545  A
C1550      C1551   1.411       .  A
C1551      C1552   1.395       .  A
C1551      C1555   1.519       .  S
C1552      H1556   1.084       .  S
C1553      F1566   1.385       .  S
C1553      F1567   1.383       .  S
C1553      F1568   1.382       .  S
C1555      F1563   1.385       .  S
C1555      F1564   1.383   1_565  S
C1555      F1565   1.383       .  S
C1569      H1579   1.084       .  S
C1569      C1570   1.399   1_554  A
C1569      C1574   1.398       .  A
C1570      C1575   1.462       .  S
C1570      C1571   1.409       .  A
C1571      C1572   1.398       .  A
C1571      C1576   1.519       .  S
C1572      H1577   1.083       .  S
C1572      C1573   1.405       .  A
C1573      C1574   1.418   1_556  A
C1574      C1578   1.522       .  S
C1575      C1580   1.412   1_556  A
C1575      C1584   1.400       .  A
C1576      F1592   1.382       .  S
C1576      F1593   1.382       .  S
C1576      F1594   1.385       .  S
C1578      F1589   1.382       .  S
C1578      F1590   1.385       .  S
C1578      F1591   1.384   1_554  S
C1580      C1581   1.399       .  A
C1580      C1585   1.521       .  S
C1581      H1586   1.083       .  S
C1581      C1582   1.404   1_554  A
C1582      C1583   1.412       .  A
C1583      C1584   1.397       .  A
C1583      C1587   1.518       .  S
C1584      H1588   1.084       .  S
C1585      F1598   1.385       .  S
C1585      F1599   1.382       .  S
C1585      F1600   1.382       .  S
C1587      F1595   1.382       .  S
C1587      F1596   1.384       .  S
C1587      F1597   1.385       .  S
C1601      H1611   1.084       .  S
C1601      C1602   1.395   1_554  A
C1601      C1606   1.393       .  A
C1602      C1607   1.454       .  S
C1602      C1603   1.412       .  A
C1603      C1604   1.397       .  A
C1603      C1608   1.519       .  S
C1604      H1609   1.084       .  S
C1604      C1605   1.399       .  A
C1605      C1606   1.416   1_556  A
C1606      C1610   1.521       .  S
C1607      C1612   1.414   1_556  A
C1607      C1616   1.396       .  A
C1608      F1624   1.382       .  S
C1608      F1625   1.382       .  S
C1608      F1626   1.384       .  S
C1610      F1621   1.385       .  S
C1610      F1622   1.383       .  S
C1610      F1623   1.382       .  S
C1612      C1613   1.396       .  A
C1612      C1617   1.521       .  S
C1613      H1618   1.084       .  S
C1613      C1614   1.397   1_554  A
C1614      C1615   1.413       .  A
C1615      C1616   1.394       .  A
C1615      C1619   1.520       .  S
C1616      H1620   1.083       .  S
C1617      F1630   1.385       .  S
C1617      F1631   1.382       .  S
C1617      F1632   1.382       .  S
C1619      F1627   1.384       .  S
C1619      F1628   1.382       .  S
C1619      F1629   1.384       .  S
C1633      H1643   1.084       .  S
C1633      C1634   1.395       .  A
C1633      C1638   1.393       .  A
C1634      C1639   1.449       .  S
C1634      C1635   1.412   1_565  A
C1635      C1636   1.393       .  A
C1635      C1640   1.521       .  S
C1636      H1641   1.084       .  S
C1636      C1637   1.398   1_545  A
C1637      C1638   1.415       .  A
C1638      C1642   1.522       .  S
C1639      C1644   1.410   1_565  A
C1639      C1648   1.396       .  A
C1640      F1656   1.382   1_545  S
C1640      F1657   1.382       .  S
C1640      F1658   1.385       .  S
C1642      F1653   1.385       .  S
C1642      F1654   1.384       .  S
C1642      F1655   1.382       .  S
C1644      C1645   1.395       .  A
C1644      C1649   1.521       .  S
C1645      H1650   1.084       .  S
C1645      C1646   1.399   1_545  A
C1646      C1647   1.411       .  A
C1647      C1648   1.392       .  A
C1647      C1651   1.520       .  S
C1648      H1652   1.084       .  S
C1649      F1662   1.384       .  S
C1649      F1663   1.383       .  S
C1649      F1664   1.383       .  S
C1651      F1659   1.384       .  S
C1651      F1660   1.382       .  S
C1651      F1661   1.384       .  S
C1665      H1675   1.084       .  S
C1665      C1666   1.396       .  A
C1665      C1670   1.396       .  A
C1666      C1671   1.453       .  S
C1666      C1667   1.413       .  A
C1667      C1668   1.395       .  A
C1667      C1672   1.521   1_545  S
C1668      H1673   1.084   1_545  S
C1668      C1669   1.398       .  A
C1669      C1670   1.416       .  A
C1670      C1674   1.520       .  S
C1671      C1676   1.410       .  A
C1671      C1680   1.397   1_545  A
C1672      F1688   1.382       .  S
C1672      F1689   1.382   1_565  S
C1672      F1690   1.385       .  S
C1674      F1685   1.382       .  S
C1674      F1686   1.385       .  S
C1674      F1687   1.383   1_545  S
C1676      C1677   1.395       .  A
C1676      C1681   1.520       .  S
C1677      H1682   1.084       .  S
C1677      C1678   1.400       .  A
C1678      C1679   1.414   1_545  A
C1679      C1680   1.395       .  A
C1679      C1683   1.520       .  S
C1680      H1684   1.084       .  S
C1681      F1694   1.385       .  S
C1681      F1695   1.383       .  S
C1681      F1696   1.382       .  S
C1683      F1691   1.383       .  S
C1683      F1692   1.383       .  S
C1683      F1693   1.385       .  S
C1697      H1707   1.084       .  S
C1697      C1698   1.394       .  A
C1697      C1702   1.392       .  A
C1698      C1703   1.454       .  S
C1698      C1699   1.413       .  A
C1699      C1700   1.396       .  A
C1699      C1704   1.520       .  S
C1700      H1705   1.084       .  S
C1700      C1701   1.399       .  A
C1701      C1702   1.418       .  A
C1702      C1706   1.522       .  S
C1703      C1708   1.410       .  A
C1703      C1712   1.397       .  A
C1704      F1720   1.382       .  S
C1704      F1721   1.383       .  S
C1704      F1722   1.384       .  S
C1706      F1717   1.384       .  S
C1706      F1718   1.385       .  S
C1706      F1719   1.382       .  S
C1708      C1709   1.391       .  A
C1708      C1713   1.522       .  S
C1709      H1714   1.083       .  S
C1709      C1710   1.402       .  A
C1710      C1711   1.418       .  A
C1711      C1712   1.397       .  A
C1711      C1715   1.521       .  S
C1712      H1716   1.084       .  S
C1713      F1726   1.385       .  S
C1713      F1727   1.382       .  S
C1713      F1728   1.382       .  S
C1715      F1723   1.383       .  S
C1715      F1724   1.383       .  S
C1715      F1725   1.385       .  S
C1729      H1739   1.084       .  S
C1729      C1730   1.400       .  A
C1729      C1734   1.397       .  A
C1730      C1735   1.455       .  S
C1730      C1731   1.412       .  A
C1731      C1732   1.394       .  A
C1731      C1736   1.522       .  S
C1732      H1737   1.084       .  S
C1732      C1733   1.399       .  A
C1733      C1734   1.411       .  A
C1734      C1738   1.518       .  S
C1735      C1740   1.411       .  A
C1735      C1744   1.396       .  A
C1736      F1752   1.382       .  S
C1736      F1753   1.382       .  S
C1736      F1754   1.385       .  S
C1738      F1749   1.384       .  S
C1738      F1750   1.385       .  S
C1738      F1751   1.382       .  S
C1740      C1741   1.399       .  A
C1740      C1745   1.519       .  S
C1741      H1746   1.084       .  S
C1741      C1742   1.402       .  A
C1742      C1743   1.416       .  A
C1743      C1744   1.390       .  A
C1743      C1747   1.523       .  S
C1744      H1748   1.084       .  S
C1745      F1758   1.385       .  S
C1745      F1759   1.382       .  S
C1745      F1760   1.382       .  S
C1747      F1755   1.383       .  S
C1747      F1756   1.383       .  S
C1747      F1757   1.385       .  S
C1761      H1771   1.084       .  S
C1761      C1762   1.400       .  A
C1761      C1766   1.396       .  A
C1762      C1767   1.457       .  S
C1762      C1763   1.410       .  A
C1763      C1764   1.396       .  A
C1763      C1768   1.520       .  S
C1764      H1769   1.084       .  S
C1764      C1765   1.402       .  A
C1765      C1766   1.411       .  A
C1766      C1770   1.519       .  S
C1767      C1772   1.413       .  A
C1767      C1776   1.400       .  A
C1768      F1784   1.382       .  S
C1768      F1785   1.382       .  S
C1768      F1786   1.385       .  S
C1770      F1781   1.382       .  S
C1770      F1782   1.385       .  S
C1770      F1783   1.383       .  S
C1772      C1773   1.395       .  A
C1772      C1777   1.520       .  S
C1773      H1778   1.084       .  S
C1773      C1774   1.398       .  A
C1774      C1775   1.410       .  A
C1775      C1776   1.397       .  A
C1775      C1779   1.518       .  S
C1776      H1780   1.084       .  S
C1777      F1790   1.385       .  S
C1777      F1791   1.382       .  S
C1777      F1792   1.382       .  S
C1779      F1787   1.382       .  S
C1779      F1788   1.383       .  S
C1779      F1789   1.385       .  S
C1793      H1803   1.084       .  S
C1793      C1794   1.399       .  A
C1793      C1798   1.399       .  A
C1794      C1799   1.458       .  S
C1794      C1795   1.409       .  A
C1795      C1796   1.392       .  A
C1795      C1800   1.521   1_556  S
C1796      H1801   1.083   1_556  S
C1796      C1797   1.404       .  A
C1797      C1798   1.417       .  A
C1798      C1802   1.520       .  S
C1799      C1804   1.415   1_556  A
C1799      C1808   1.398       .  A
C1800      F1816   1.382   1_554  S
C1800      F1817   1.383       .  S
C1800      F1818   1.384       .  S
C1802      F1813   1.383   1_556  S
C1802      F1814   1.385       .  S
C1802      F1815   1.383       .  S
C1804      C1805   1.394       .  A
C1804      C1809   1.522       .  S
C1805      H1810   1.084       .  S
C1805      C1806   1.398       .  A
C1806      C1807   1.414   1_554  A
C1807      C1808   1.398       .  A
C1807      C1811   1.519       .  S
C1808      H1812   1.083       .  S
C1809      F1822   1.384       .  S
C1809      F1823   1.382       .  S
C1809      F1824   1.383       .  S
C1811      F1819   1.382       .  S
C1811      F1820   1.384       .  S
C1811      F1821   1.385       .  S
