geometry optimzed in LAMMPS
_audit_creation_date              2020-11-30 
_audit_creation_method            'lammps2cif' 
_symmetry_space_group_name_H-M    'P1' 
_symmetry_Int_Tables_number       1 
_symmetry_cell_setting            triclinic 
loop_ 
_symmetry_equiv_pos_as_xyz 
  x,y,z 
_cell_length_a                    35.68655093 
_cell_length_b                    35.573625565337316 
_cell_length_c                    35.58341933726689 
_cell_angle_alpha                 90.20434190512931 
_cell_angle_beta                  90.04645950267965 
_cell_angle_gamma                 89.76829533561397 
loop_ 
_atom_site_label 
_atom_site_type_symbol 
_atom_site_fract_x 
_atom_site_fract_y 
_atom_site_fract_z 
_atom_site_charge 
N1          N  0.49862216  0.94140488  0.49753191    -0.36300
N2          N  0.50212136  0.99957362  0.43902356    -0.56900
N3          N  0.50363419  0.05633294  0.49739579    -0.36300
N4          N  0.50288226  0.99830169  0.55591234    -0.56900
C5          C  0.50486113  0.91998407  0.46663533     0.27200
C6          C  0.50435017  0.91928754  0.52796675     0.27200
C7          C  0.50961994  0.07809854  0.46682713     0.27200
C8          C  0.51110186  0.07752172  0.52809551     0.27200
C9          C  0.49547433  0.96914592  0.41718461     0.35900
C10         C  0.49664376  0.03024284  0.41722520     0.35900
C11         C  0.49675067  0.96802667  0.57805872     0.35900
C12         C  0.49949761  0.02921304  0.57796947     0.35900
C13         C  0.51409150  0.88369104  0.47762085    -0.21600
C14         C  0.51372306  0.88325148  0.51617829    -0.21600
C15         C  0.52080835  0.11361552  0.47829521    -0.21600
C16         C  0.52175235  0.11327259  0.51678991    -0.21600
C17         C  0.48628157  0.98051879  0.38107292    -0.22700
C18         C  0.48696429  0.01923165  0.38112365    -0.22700
C19         C  0.48992357  0.97974576  0.61459965    -0.22700
C20         C  0.49168505  0.01847182  0.61455705    -0.22700
C21         C  0.49979639  0.93129914  0.42879565    -0.18000
C22         C  0.49947781  0.92999096  0.56607718    -0.18000
C23         C  0.50553166  0.06677612  0.56601839    -0.18000
C24         C  0.50237030  0.06787493  0.42903752    -0.18000
H25         H  0.51992255  0.85968088  0.45977402     0.14900
H26         H  0.51938015  0.85892400  0.53348822     0.14900
H27         H  0.52678714  0.13774184  0.46090210     0.14900
H28         H  0.52852759  0.13720393  0.53432053     0.14900
H29         H  0.47990844  0.96278099  0.35714736     0.13200
H30         H  0.48128838  0.03717822  0.35726835     0.13200
H31         H  0.48464093  0.96221982  0.63881134     0.13200
H32         H  0.48804157  0.03661473  0.63877474     0.13200
H33         H  0.48694234  0.96812617  0.49766504     0.26400
H34         H  0.49063101  0.03036474  0.49753777     0.26400
N35         N  0.93770633  0.50412670  0.50360393    -0.36300
N36         N  0.99417519  0.56374095  0.50235081    -0.56900
N37         N  0.05233153  0.50605874  0.49650154    -0.36300
N38         N  0.99591777  0.44644144  0.49823670    -0.56900
C39         C  0.91507919  0.53455886  0.49941269     0.27200
C40         C  0.91608107  0.47316856  0.49904534     0.27200
C41         C  0.07400468  0.53672744  0.50248923     0.27200
C42         C  0.07498103  0.47551861  0.49915697     0.27200
C43         C  0.96326697  0.58586713  0.50317981     0.35900
C44         C  0.02425960  0.58679600  0.50220619     0.35900
C45         C  0.96598049  0.42329260  0.50006148     0.35900
C46         C  0.02677331  0.42436005  0.49593895     0.35900
C47         C  0.87864935  0.52264754  0.49285069    -0.21600
C48         C  0.87926574  0.48415600  0.49269470    -0.21600
C49         C  0.11081497  0.52542715  0.50834031    -0.21600
C50         C  0.11144234  0.48703426  0.50618315    -0.21600
C51         C  0.97381196  0.62335350  0.50376250    -0.22700
C52         C  0.01240155  0.62393336  0.50309795    -0.22700
C53         C  0.97790006  0.38617141  0.49901617    -0.22700
C54         C  0.01636177  0.38684193  0.49616904    -0.22700
C55         C  0.92568681  0.57295499  0.50167740    -0.18000
C56         C  0.92797173  0.43508228  0.50081654    -0.18000
C57         C  0.06430039  0.43733986  0.49547718    -0.18000
C58         C  0.06226418  0.57486691  0.50228654    -0.18000
H59         H  0.85396195  0.53985568  0.48846827     0.14900
H60         H  0.85516576  0.46634834  0.48807648     0.14900
H61         H  0.13492174  0.54297035  0.51386438     0.14900
H62         H  0.13609855  0.46960966  0.50984469     0.14900
H63         H  0.95560666  0.64776475  0.50419548     0.13200
H64         H  0.02973268  0.64883595  0.50335445     0.13200
H65         H  0.96066674  0.36121642  0.49973169     0.13200
H66         H  0.03459536  0.36247714  0.49491824     0.13200
H67         H  0.96542969  0.50441975  0.51222235     0.26400
H68         H  0.02459177  0.50604221  0.48790463     0.26400
N69         N  0.50228869  0.49968339  0.94464325    -0.36300
N70         N  0.55991593  0.49463357  0.00252355    -0.56900
N71         N  0.50065799  0.49614061  0.05987645    -0.36300
N72         N  0.44302626  0.49788845  0.00208258    -0.56900
C73         C  0.53291427  0.49463566  0.92265854     0.27200
C74         C  0.47169663  0.49655275  0.92236724     0.27200
C75         C  0.53102829  0.48926695  0.08164291     0.27200
C76         C  0.46985835  0.49052080  0.08137383     0.27200
C77         C  0.58248676  0.49962169  0.97234195     0.35900
C78         C  0.58158900  0.49838529  0.03356618     0.35900
C79         C  0.42136478  0.50374076  0.97139094     0.35900
C80         C  0.42050016  0.50139901  0.03255621     0.35900
C81         C  0.52155447  0.48854482  0.88583218    -0.21600
C82         C  0.48311668  0.48978234  0.88563525    -0.21600
C83         C  0.51932130  0.47956513  0.11750365    -0.21600
C84         C  0.48093795  0.48034276  0.11733346    -0.21600
C85         C  0.61894735  0.50566972  0.98428704    -0.22700
C86         C  0.61836643  0.50498711  0.02300679    -0.22700
C87         C  0.38462610  0.51021608  0.98243074    -0.22700
C88         C  0.38408354  0.50871423  0.02111350    -0.22700
C89         C  0.57088934  0.49769564  0.93416599    -0.18000
C90         C  0.43380982  0.50184031  0.93349735    -0.18000
C91         C  0.43205615  0.49648019  0.07043068    -0.18000
C92         C  0.56901885  0.49438064  0.07123284    -0.18000
H93         H  0.53907574  0.48435323  0.86134554     0.14900
H94         H  0.46568165  0.48670923  0.86092968     0.14900
H95         H  0.53651914  0.47327746  0.14173884     0.14900
H96         H  0.46334841  0.47473157  0.14140222     0.14900
H97         H  0.64340128  0.51018817  0.96693077     0.13200
H98         H  0.64233255  0.50872410  0.04127807     0.13200
H99         H  0.36065605  0.51533673  0.96448096     0.13200
H100        H  0.35965376  0.51243549  0.03876474     0.13200
H101        H  0.50225815  0.50881707  0.97224614     0.26400
H102        H  0.50113028  0.50844046  0.03357568     0.26400
N103        N  0.99557688  0.55658552  0.99532715    -0.36300
N104        N  0.99959703  0.50210427  0.05627156    -0.56900
N105        N  0.00644724  0.44190210  0.00042781    -0.36300
N106        N  0.00201909  0.49643478  0.93949731    -0.56900
C107        C  0.99934798  0.58029719  0.02494256     0.27200
C108        C  0.99928910  0.57737684  0.96377661     0.27200
C109        C  0.00287642  0.42101180  0.03192616     0.27200
C110        C  0.00520590  0.41798243  0.97076430     0.27200
C111        C  0.99749978  0.53354382  0.07749593     0.35900
C112        C  0.99971053  0.47275224  0.08017619     0.35900
C113        C  0.99935782  0.52570584  0.91556487     0.35900
C114        C  0.00397053  0.46495813  0.91823946     0.35900
C115        C  0.00426862  0.61667728  0.01197154    -0.21600
C116        C  0.00400112  0.61486725  0.97355449    -0.21600
C117        C  0.00075746  0.38325800  0.02211295    -0.21600
C118        C  0.00227494  0.38136117  0.98370552    -0.21600
C119        C  0.99628252  0.52415465  0.11526465    -0.22700
C120        C  0.99762748  0.48560531  0.11695980    -0.22700
C121        C  0.99957159  0.51278026  0.87877659    -0.22700
C122        C  0.00258976  0.47431223  0.88046138    -0.22700
C123        C  0.99820524  0.57064396  0.06349058    -0.18000
C124        C  0.99843005  0.56403247  0.92621415    -0.18000
C125        C  0.00582920  0.42778067  0.93219635    -0.18000
C126        C  0.00102758  0.43448101  0.06944198    -0.18000
H127        H  0.00783755  0.64206556  0.02842671     0.14900
H128        H  0.00713389  0.63864654  0.95499774     0.14900
H129        H  0.99788062  0.35937291  0.04063551     0.14900
H130        H  0.00070912  0.35578613  0.96722184     0.14900
H131        H  0.99480879  0.54308132  0.13911365     0.13200
H132        H  0.99714356  0.46896610  0.14236491     0.13200
H133        H  0.99811148  0.52934967  0.85335933     0.13200
H134        H  0.00347847  0.45539966  0.85657875     0.13200
H135        H  0.98786493  0.52860615  0.99646996     0.26400
H136        H  0.01158031  0.47043040  0.99934735     0.26400
N137        N  0.55265167  0.00387308  0.00805826    -0.36300
N138        N  0.49584836  0.06280996  0.99892984    -0.56900
N139        N  0.43827837  0.00487497  0.99742569    -0.36300
N140        N  0.49498470  0.94589274  0.00558311    -0.56900
C141        C  0.57529681  0.03423782  0.00595333     0.27200
C142        C  0.57485541  0.97290825  0.00684673     0.27200
C143        C  0.41643714  0.03599597  0.99989105     0.27200
C144        C  0.41605212  0.97495624  0.00452153     0.27200
C145        C  0.52648570  0.08501208  0.99891101     0.35900
C146        C  0.46582564  0.08546015  0.99358212     0.35900
C147        C  0.52522414  0.92292794  0.00495157     0.35900
C148        C  0.46442949  0.92372727  0.00345383     0.35900
C149        C  0.61239270  0.02237666  0.00504277    -0.21600
C150        C  0.61211496  0.98389963  0.00550892    -0.21600
C151        C  0.37981906  0.02550579  0.00773976    -0.21600
C152        C  0.37962770  0.98718916  0.01080725    -0.21600
C153        C  0.51582779  0.12215346  0.99355398    -0.22700
C154        C  0.47742797  0.12241833  0.99009595    -0.22700
C155        C  0.51376459  0.88577654  0.00286193    -0.22700
C156        C  0.47523918  0.88628333  0.00199967    -0.22700
C157        C  0.56400203  0.07242083  0.00314153    -0.18000
C158        C  0.56304474  0.93487059  0.00543396    -0.18000
C159        C  0.42690902  0.93665021  0.00398027    -0.18000
C160        C  0.42798398  0.07367764  0.99451215    -0.18000
H161        H  0.63725897  0.03957441  0.00306694     0.14900
H162        H  0.63674894  0.96609412  0.00414525     0.14900
H163        H  0.35547242  0.04345266  0.01087315     0.14900
H164        H  0.35521046  0.97028120  0.01678769     0.14900
H165        H  0.53382155  0.14653814  0.99224909     0.13200
H166        H  0.46001499  0.14706804  0.98610559     0.13200
H167        H  0.53131598  0.86090583  0.00188553     0.13200
H168        H  0.45726647  0.86188728  0.00044662     0.13200
H169        H  0.52391155  0.00438114  0.01118002     0.26400
H170        H  0.46561205  0.00383612  0.98764842     0.26400
O171        O  0.79903929  0.71931665  0.82363612    -0.78200
C172        C  0.71196184  0.80887705  0.83494962     0.82800
O173        O  0.69426897  0.67372404  0.75479383    -0.79300
O174        O  0.68147403  0.80795013  0.71966617    -0.80800
O175        O  0.81973803  0.80437774  0.72130404    -0.80600
O176        O  0.83395207  0.72512213  0.77219543    -0.79200
Zn177      Zn  0.74744454  0.73610891  0.80581241     1.55700
O178        O  0.76813392  0.83942256  0.72586107    -0.80600
Cd179      Cd  0.79950442  0.75186190  0.73506630     1.59700
Cd180      Cd  0.71478446  0.71824572  0.72150007     1.59600
O181        O  0.80274559  0.72198644  0.68626722    -0.80600
O182        O  0.74713533  0.75213578  0.75376039    -1.91100
Cd183      Cd  0.72929510  0.80508409  0.75123416     1.59900
O184        O  0.74648729  0.69690942  0.67600596    -0.80600
O185        O  0.71408918  0.82557419  0.80345682    -0.79200
C186        C  0.69813835  0.66769746  0.79005648     0.83300
C187        C  0.82966615  0.71418327  0.80589407     0.82900
O188        O  0.72397354  0.77538117  0.83940623    -0.78200
C189        C  0.80234222  0.83525578  0.71641681     0.83800
O190        O  0.71635203  0.69015445  0.81095066    -0.78300
C191        C  0.78057162  0.70244678  0.66635849     0.83900
C192        C  0.66122841  0.78457182  0.70185564     0.84200
O193        O  0.66955805  0.74960876  0.69952790    -0.80700
O194        O  0.15687236  0.73592582  0.76830833    -0.78200
C195        C  0.19770276  0.84332153  0.71804095     0.82800
O196        O  0.24565340  0.69668974  0.67891182    -0.79300
O197        O  0.31239530  0.80980094  0.72077907    -0.80800
O198        O  0.26151527  0.77596383  0.84341917    -0.80600
O199        O  0.18886515  0.71788345  0.81862346    -0.79200
Zn200      Zn  0.19482100  0.75894589  0.73303421     1.55700
O201        O  0.28355298  0.82252034  0.80821058    -0.80600
Cd202      Cd  0.24200114  0.73696765  0.80521368     1.59700
Cd203      Cd  0.27891340  0.72167974  0.72133323     1.59600
O204        O  0.27730151  0.69222394  0.81165267    -0.80600
O205        O  0.24534616  0.75569365  0.75276421    -1.91100
Cd206      Cd  0.26657211  0.80714964  0.75476866     1.59900
O207        O  0.30388555  0.68028327  0.75650130    -0.80600
O208        O  0.23001051  0.84625235  0.73288035    -0.79200
C209        C  0.21178328  0.70356976  0.66907171     0.83300
C210        C  0.15844547  0.71921074  0.79988087     0.82900
O211        O  0.18035296  0.81204355  0.71733914    -0.78200
C212        C  0.27932756  0.80671073  0.83997605     0.83800
O213        O  0.19186589  0.72711860  0.68725678    -0.78300
C214        C  0.29977475  0.67308927  0.79159110     0.83900
C215        C  0.33034205  0.78848139  0.69845676     0.84200
O216        O  0.32146529  0.75376104  0.69482097    -0.80700
O217        O  0.76998015  0.15871206  0.73204369    -0.78200
C218        C  0.71756027  0.19485357  0.83841788     0.82800
O219        O  0.67929615  0.24979640  0.69559845    -0.79300
O220        O  0.72372347  0.31099461  0.81133701    -0.80800
O221        O  0.84326152  0.26710011  0.77224640    -0.80600
O222        O  0.82163799  0.19133839  0.71971108    -0.79200
Zn223      Zn  0.73354494  0.19565429  0.75432041     1.55700
O224        O  0.80943106  0.28166825  0.82266759    -0.80600
Cd225      Cd  0.80567214  0.24443008  0.73526535     1.59700
Cd226      Cd  0.72226689  0.28108197  0.72169343     1.59600
O227        O  0.81076434  0.27711895  0.68895522    -0.80600
O228        O  0.75350376  0.24611669  0.75405195    -1.91100
Cd229      Cd  0.75625917  0.26437143  0.80667024     1.59900
O230        O  0.75602163  0.30520889  0.67955327    -0.80600
O231        O  0.73357359  0.22638909  0.84358267    -0.79200
C232        C  0.67085857  0.21501705  0.69871500     0.83300
C233        C  0.80315782  0.16090455  0.71916941     0.82900
O234        O  0.71618347  0.17937762  0.80609267    -0.78200
C235        C  0.84027212  0.28181847  0.80467021     0.83800
O236        O  0.68944549  0.19358266  0.72042269    -0.78300
C237        C  0.79038997  0.29981527  0.67061113     0.83900
C238        C  0.70409551  0.33207083  0.79039200     0.84200
O239        O  0.69967211  0.32472477  0.75537993    -0.80700
O240        O  0.23455143  0.27580805  0.65100068    -0.78200
C241        C  0.34292731  0.22437517  0.68667091     0.82800
O242        O  0.20155262  0.18410683  0.74039505    -0.79300
O243        O  0.31467326  0.22872270  0.80492275    -0.80800
O244        O  0.27576072  0.34992806  0.75768046    -0.80600
O245        O  0.21909582  0.32633649  0.68445328    -0.79200
Zn246      Zn  0.25899310  0.23999455  0.68722995     1.55700
O247        O  0.32489420  0.31544600  0.77516540    -0.80600
Cd248      Cd  0.23840888  0.31162514  0.73677115     1.59700
Cd249      Cd  0.22583810  0.22758313  0.77185990     1.59600
O250        O  0.19324904  0.31674229  0.77127244    -0.80600
O251        O  0.25823573  0.25941937  0.73812345    -1.91100
Cd252      Cd  0.31030373  0.26155672  0.75779518     1.59900
O253        O  0.18307220  0.26054969  0.79587668    -0.80600
O254        O  0.34730645  0.23889849  0.71920552    -0.79200
C255        C  0.20591176  0.17530170  0.70579489     0.83300
C256        C  0.21874509  0.30783215  0.65380503     0.82900
O257        O  0.31109032  0.22405495  0.67039476    -0.78200
C258        C  0.30732247  0.34672068  0.77396035     0.83800
O259        O  0.22708693  0.19447695  0.68467872    -0.78300
C260        C  0.17441125  0.29530499  0.79236671     0.83900
C261        C  0.29262344  0.20855756  0.82429780     0.84200
O262        O  0.25821051  0.20430175  0.81526572    -0.80700
O263        O  0.72939246  0.76726308  0.15677896    -0.78200
C264        C  0.83606692  0.71788021  0.19329291     0.82800
O265        O  0.69295381  0.67822632  0.24803631    -0.79300
O266        O  0.80755367  0.72132496  0.31026755    -0.80800
O267        O  0.77173422  0.84268474  0.26380081    -0.80600
O268        O  0.71822530  0.82012210  0.18832702    -0.79200
Zn269      Zn  0.75178792  0.73142072  0.19410785     1.55700
O270        O  0.81964641  0.80699853  0.28166474    -0.80600
Cd271      Cd  0.73391505  0.80524350  0.24169620     1.59700
Cd272      Cd  0.71790980  0.72231638  0.27842889     1.59600
O273        O  0.68718039  0.81157101  0.27366799    -0.80600
O274        O  0.75141203  0.75244578  0.24423255    -1.91100
Cd275      Cd  0.80348820  0.75419367  0.26386177     1.59900
O276        O  0.67509853  0.75677234  0.30043129    -0.80600
O277        O  0.84078322  0.73284049  0.22549312    -0.79200
C278        C  0.69711493  0.66823018  0.21375758     0.83300
C279        C  0.71675826  0.80072688  0.15827355     0.82900
O280        O  0.80386567  0.71586954  0.17798015    -0.78200
C281        C  0.80319364  0.83875042  0.28013292     0.83800
O282        O  0.71910855  0.68610593  0.19214826    -0.78300
C283        C  0.66716719  0.79145956  0.29497708     0.83900
C284        C  0.78506664  0.70243914  0.33035714     0.84200
O285        O  0.75017457  0.69995844  0.32247264    -0.80700
O286        O  0.28232655  0.81648046  0.19818315    -0.78200
C287        C  0.19555422  0.83242799  0.28568569     0.82800
O288        O  0.32464313  0.74810425  0.30634267    -0.79300
O289        O  0.19350851  0.71693755  0.31631539    -0.80800
O290        O  0.19538474  0.71290070  0.18139562    -0.80600
O291        O  0.27095018  0.76681775  0.16181828    -0.79200
Zn292      Zn  0.26642471  0.79995589  0.25002960     1.55700
O293        O  0.16066221  0.72553898  0.23169875    -0.80600
Cd294      Cd  0.24818937  0.72905249  0.19850271     1.59700
Cd295      Cd  0.28165444  0.71518832  0.28347220     1.59600
O296        O  0.28039718  0.68189129  0.19453160    -0.80600
O297        O  0.24921266  0.74853802  0.25076747    -1.91100
Cd298      Cd  0.19700571  0.74884431  0.26942591     1.59900
O299        O  0.30485642  0.67086941  0.25111092    -0.80600
O300        O  0.17844750  0.80121232  0.28522734    -0.79200
C301        C  0.33203144  0.78301670  0.30259839     0.83300
C302        C  0.28386990  0.79975297  0.16651166     0.82900
O303        O  0.22856254  0.83562653  0.27248391    -0.78200
C304        C  0.16424074  0.71209499  0.19878413     0.83800
O305        O  0.31164305  0.80404462  0.28214508    -0.78300
C306        C  0.30031514  0.66207296  0.21647842     0.83900
C307        C  0.21500483  0.69656641  0.33621652     0.84200
O308        O  0.24963261  0.69245448  0.32778733    -0.80700
O309        O  0.71929422  0.18140549  0.19794923    -0.78200
C310        C  0.80839309  0.16705823  0.28373155     0.82800
O311        O  0.67455378  0.24624925  0.30510486    -0.79300
O312        O  0.80726668  0.28231702  0.31918449    -0.80800
O313        O  0.80497084  0.28297971  0.18078133    -0.80600
O314        O  0.72570251  0.23284786  0.16350914    -0.79200
Zn315      Zn  0.73617307  0.19772976  0.24961995     1.55700
O316        O  0.83960166  0.27665787  0.23250988    -0.80600
Cd317      Cd  0.75205352  0.26930163  0.19978228     1.59700
Cd318      Cd  0.71811343  0.28046382  0.28502194     1.59600
O319        O  0.72215411  0.31828559  0.19823369    -0.80600
O320        O  0.75222368  0.24945509  0.25180142    -1.91100
Cd321      Cd  0.80471796  0.25132070  0.27069316     1.59900
O322        O  0.69540717  0.32564616  0.25447289    -0.80600
O323        O  0.82478544  0.19872377  0.28462669    -0.79200
C324        C  0.66871900  0.21101073  0.30070270     0.83300
C325        C  0.71473895  0.19903971  0.16723321     0.82900
O326        O  0.77552174  0.16344053  0.27026186    -0.78200
C327        C  0.83577642  0.28679135  0.19841809     0.83800
O328        O  0.69105041  0.19096969  0.28139464    -0.78300
C329        C  0.70138279  0.33661256  0.22082807     0.83900
C330        C  0.78365431  0.30026964  0.33915335     0.84200
O331        O  0.74895325  0.30260402  0.33038786    -0.80700
N332        N  0.99935934  0.00238378  0.55909051    -0.36300
N333        N  0.05808844  0.00307716  0.50280629    -0.56900
N334        N  0.00076804  0.99858643  0.44442672    -0.36300
N335        N  0.94202468  0.00097575  0.50066906    -0.56900
C336        C  0.02921212  0.01047392  0.58107680     0.27200
C337        C  0.96828562  0.00759480  0.58014649     0.27200
C338        C  0.03165614  0.00427843  0.42329207     0.27200
C339        C  0.97065629  0.00506913  0.42221786     0.27200
C340        C  0.07991279  0.00055647  0.53374395     0.35900
C341        C  0.08062966  0.99682684  0.47296420     0.35900
C342        C  0.91950067  0.99675976  0.53079368     0.35900
C343        C  0.92013017  0.99701420  0.46994530     0.35900
C344        C  0.01690248  0.02056859  0.61669691    -0.21600
C345        C  0.97855953  0.01863102  0.61615351    -0.21600
C346        C  0.02102584  0.01385650  0.38702968    -0.21600
C347        C  0.98264379  0.01440356  0.38636888    -0.21600
C348        C  0.11672293  0.99340492  0.52348705    -0.22700
C349        C  0.11716900  0.99096806  0.48492257    -0.22700
C350        C  0.88288092  0.99082106  0.51916635    -0.22700
C351        C  0.88327479  0.99108587  0.48055522    -0.22700
C352        C  0.06732349  0.00632751  0.57096696    -0.18000
C353        C  0.93099795  0.00072181  0.56858950    -0.18000
C354        C  0.93264584  0.00071946  0.43252549    -0.18000
C355        C  0.06918488  0.99906032  0.43503762    -0.18000
H356        H  0.03373904  0.02785443  0.64093831     0.14900
H357        H  0.96044679  0.02429015  0.63989117     0.14900
H358        H  0.03895748  0.01949144  0.36322641     0.14900
H359        H  0.96560773  0.02050549  0.36195651     0.14900
H360        H  0.14076432  0.99050587  0.54182755     0.13200
H361        H  0.14165972  0.98598420  0.46765397     0.13200
H362        H  0.85833576  0.98736027  0.53665407     0.13200
H363        H  0.85915302  0.98772666  0.46240868     0.13200
H364        H  0.00019537  0.98962874  0.53288470     0.26400
H365        H  0.00040448  0.98663991  0.47095477     0.26400
C366        C  0.13490708  0.03172836  0.35921994     0.03400
C367        C  0.11139850  0.03207685  0.39064486    -0.12800
C368        C  0.09812554  0.99817404  0.40542667     0.00900
C369        C  0.10991008  0.96376683  0.38989268    -0.11300
C370        C  0.13473075  0.96346434  0.35939920     0.03400
C371        C  0.14619634  0.99741349  0.34361399    -0.10700
H372        H  0.10290971  0.05852455  0.40326457     0.09000
H373        H  0.09988197  0.93753482  0.40147447     0.06500
H374        H  0.16458592  0.99711522  0.31935400     0.06400
O375        O  0.26172269  0.22706503  0.15891060    -0.78200
C376        C  0.15930145  0.28055220  0.19902856     0.82800
O377        O  0.30285165  0.32123100  0.24505671    -0.79300
O378        O  0.19068185  0.28081615  0.31185880    -0.80800
O379        O  0.22980554  0.15695130  0.26916929    -0.80600
O380        O  0.28149712  0.17745211  0.19119349    -0.79200
Zn381      Zn  0.24273688  0.26489928  0.19587578     1.55700
O382        O  0.18136309  0.19199163  0.28762892    -0.80600
Cd383      Cd  0.26655664  0.19405835  0.24499995     1.59700
Cd384      Cd  0.27913170  0.27926219  0.27855447     1.59600
O385        O  0.31383634  0.19073500  0.27745439    -0.80600
O386        O  0.24629924  0.24617605  0.24645591    -1.91100
Cd387      Cd  0.19502840  0.24436096  0.26766444     1.59900
O388        O  0.32203800  0.24703831  0.30330603    -0.80600
O389        O  0.15589676  0.26329519  0.23003474    -0.79200
C390        C  0.29780394  0.32886905  0.21032130     0.83300
C391        C  0.27803662  0.19526148  0.16038274     0.82900
O392        O  0.19078992  0.28288249  0.18243376    -0.78200
C393        C  0.19867695  0.16067081  0.28623025     0.83800
O394        O  0.27601479  0.30910889  0.19023842    -0.78300
C395        C  0.33191216  0.21266948  0.29917302     0.83900
C396        C  0.21241435  0.30309764  0.32935196     0.84200
O397        O  0.24697977  0.30575467  0.32042531    -0.80700
C398        C  0.03184695  0.35869194  0.13652083     0.03400
C399        C  0.99721157  0.34436105  0.14779656    -0.12800
C400        C  0.96382435  0.36067663  0.13536805     0.00900
C401        C  0.96482853  0.39118369  0.11068636    -0.11300
C402        C  0.99948561  0.40575346  0.09924891     0.03400
C403        C  0.03292399  0.38996281  0.11275362    -0.10700
H404        H  0.99617514  0.32045462  0.16660418     0.09000
H405        H  0.93895693  0.40326657  0.10017677     0.06500
H406        H  0.05953947  0.40174391  0.10431283     0.06400
C407        C  0.35067200  0.13735650  0.95828205     0.03400
C408        C  0.33382225  0.14816087  0.99213372    -0.12800
C409        C  0.34882770  0.13652709  0.02658431     0.00900
C410        C  0.38138543  0.11447660  0.02711564    -0.11300
C411        C  0.39787358  0.10249262  0.99334130     0.03400
C412        C  0.38255532  0.11410532  0.95884817    -0.10700
H413        H  0.30932555  0.16629547  0.99167518     0.09000
H414        H  0.39343256  0.10581989  0.05369247     0.06500
H415        H  0.39530456  0.10505641  0.93269534     0.06400
C416        C  0.53330640  0.14592941  0.36349571     0.03400
C417        C  0.53431631  0.11408300  0.38672038    -0.12800
C418        C  0.50096058  0.09869226  0.40079663     0.00900
C419        C  0.46644589  0.11512891  0.39098519    -0.11300
C420        C  0.46505262  0.14580985  0.36614994     0.03400
C421        C  0.49863951  0.16108453  0.35276698    -0.10700
H422        H  0.56104827  0.10205656  0.39488428     0.09000
H423        H  0.44082982  0.10422339  0.40296679     0.06500
H424        H  0.49777769  0.18446412  0.33332309     0.06400
C425        C  0.87087329  0.96674496  0.35318229     0.03400
C426        C  0.89323087  0.96659418  0.38561544    -0.12800
C427        C  0.90467592  0.00074835  0.40181345     0.00900
C428        C  0.89223540  0.03496462  0.38654681    -0.11300
C429        C  0.86946900  0.03495854  0.35448586     0.03400
C430        C  0.86003092  0.00097490  0.33735197    -0.10700
H431        H  0.90203260  0.94016402  0.39791160     0.09000
H432        H  0.90062878  0.06134558  0.39927519     0.06500
H433        H  0.84299099  0.00112700  0.31208943     0.06400
C434        C  0.64040399  0.13696539  0.96805659     0.03400
C435        C  0.65623698  0.14875233  0.00207868    -0.12800
C436        C  0.64097768  0.13741651  0.03641757     0.00900
C437        C  0.61029464  0.11296774  0.03670552    -0.11300
C438        C  0.59434595  0.10076175  0.00270129     0.03400
C439        C  0.60948417  0.11279722  0.96835289    -0.10700
H440        H  0.68028688  0.16728999  0.00180765     0.09000
H441        H  0.59882280  0.10350354  0.06321300     0.06500
H442        H  0.59744063  0.10315895  0.94208335     0.06400
C443        C  0.63212390  0.46661682  0.15280977     0.03400
C444        C  0.60994015  0.46397996  0.12023063    -0.12800
C445        C  0.59665219  0.49677881  0.10250564     0.00900
C446        C  0.60632645  0.53217128  0.11721135    -0.11300
C447        C  0.62931757  0.53484783  0.14914605     0.03400
C448        C  0.64158527  0.50208209  0.16698163    -0.10700
H449        H  0.60268903  0.43664249  0.10892001     0.09000
H450        H  0.59616416  0.55752554  0.10375242     0.06500
H451        H  0.65956088  0.50419289  0.19148596     0.06400
C452        C  0.84920572  0.37012812  0.47032441     0.03400
C453        C  0.88146594  0.39269016  0.46889803    -0.12800
C454        C  0.89788600  0.40621326  0.50226169     0.00900
C455        C  0.88258067  0.39595861  0.53712714    -0.11300
C456        C  0.85054412  0.37324798  0.53870614     0.03400
C457        C  0.83400049  0.36070350  0.50532684    -0.10700
H458        H  0.89369899  0.39994903  0.44206316     0.09000
H459        H  0.89528586  0.40601333  0.56292509     0.06500
H460        H  0.80976439  0.34245897  0.50663482     0.06400
C461        C  0.36869096  0.46145044  0.14843100     0.03400
C462        C  0.39121852  0.46202901  0.11608822    -0.12800
C463        C  0.40338737  0.49638373  0.10097900     0.00900
C464        C  0.39177946  0.53032597  0.11795659    -0.11300
C465        C  0.36849306  0.52981693  0.14985416     0.03400
C466        C  0.35729939  0.49536049  0.16493526    -0.10700
H467        H  0.40017938  0.43579031  0.10332576     0.09000
H468        H  0.40088127  0.55692570  0.10645857     0.06500
H469        H  0.33888707  0.49494129  0.18916525     0.06400
C470        C  0.03508845  0.64723216  0.12720259     0.03400
C471        C  0.03403471  0.61597619  0.10320207    -0.12800
C472        C  0.99941384  0.60195613  0.09085249     0.00900
C473        C  0.96596185  0.61873787  0.10315785    -0.11300
C474        C  0.96714263  0.64949738  0.12774368     0.03400
C475        C  0.00165189  0.66418836  0.13880683    -0.10700
H476        H  0.05984723  0.60244861  0.09439309     0.09000
H477        H  0.93922492  0.60754563  0.09409450     0.06500
H478        H  0.00248636  0.68816341  0.15771283     0.06400
C479        C  0.35151541  0.87111639  0.03899881     0.03400
C480        C  0.33520770  0.85982680  0.00515830    -0.12800
C481        C  0.34916637  0.87260358  0.97082560     0.00900
C482        C  0.37999007  0.89693044  0.97045996    -0.11300
C483        C  0.39644943  0.90853813  0.00442508     0.03400
C484        C  0.38216760  0.89556051  0.03875295    -0.10700
H485        H  0.31174682  0.84053194  0.00554304     0.09000
H486        H  0.39109327  0.90681633  0.94395015     0.06500
H487        H  0.39475276  0.90451773  0.06500772     0.06400
C488        C  0.46442386  0.85466862  0.36383566     0.03400
C489        C  0.46504283  0.88486567  0.38930839    -0.12800
C490        C  0.49919573  0.90117468  0.39987118     0.00900
C491        C  0.53293259  0.88629548  0.38584512    -0.11300
C492        C  0.53254561  0.85504936  0.36163619     0.03400
C493        C  0.49822818  0.84004196  0.35006207    -0.10700
H494        H  0.43913660  0.89533223  0.40134614     0.09000
H495        H  0.55940509  0.89825928  0.39470016     0.06500
H496        H  0.49778822  0.81703599  0.33000284     0.06400
C497        C  0.13939678  0.63947151  0.53739041     0.03400
C498        C  0.10704983  0.61700805  0.53696690    -0.12800
C499        C  0.09257485  0.60356023  0.50269384     0.00900
C500        C  0.11071845  0.61284649  0.46893720    -0.11300
C501        C  0.14221879  0.63649376  0.46913987     0.03400
C502        C  0.15661524  0.64911846  0.50349288    -0.10700
H503        H  0.09407251  0.60881374  0.56318828     0.09000
H504        H  0.10029956  0.60172969  0.44254007     0.06500
H505        H  0.18102194  0.66718216  0.50386792     0.06400
C506        C  0.63844542  0.87189393  0.96427020     0.03400
C507        C  0.60699492  0.89551983  0.96689403    -0.12800
C508        C  0.59304799  0.90602409  0.00242672     0.00900
C509        C  0.61056207  0.89250534  0.03508957    -0.11300
C510        C  0.64204261  0.86898713  0.03220863     0.03400
C511        C  0.65592746  0.85909003  0.99690879    -0.10700
H512        H  0.59371009  0.90596730  0.94158826     0.09000
H513        H  0.60000357  0.90059369  0.06250854     0.06500
H514        H  0.68010760  0.84061502  0.99479724     0.06400
C515        C  0.14320599  0.37569215  0.45809416     0.03400
C516        C  0.15779971  0.36168479  0.49181366    -0.12800
C517        C  0.14164824  0.37133381  0.52635362     0.00900
C518        C  0.10978222  0.39442499  0.52729664    -0.11300
C519        C  0.09515757  0.40924431  0.49386495     0.03400
C520        C  0.11243714  0.40053049  0.45938535    -0.10700
H521        H  0.18172697  0.34279688  0.49121871     0.09000
H522        H  0.09684456  0.40153109  0.55394060     0.06500
H523        H  0.10208442  0.41331736  0.43382643     0.06400
C524        C  0.97264054  0.34944027  0.86831215     0.03400
C525        C  0.97234859  0.38023278  0.89296676    -0.12800
C526        C  0.00618432  0.39644928  0.90466964     0.00900
C527        C  0.04034674  0.38183709  0.89157837    -0.11300
C528        C  0.04075950  0.35097573  0.86694164     0.03400
C529        C  0.00685230  0.33510846  0.85519439    -0.10700
H530        H  0.94593144  0.39158045  0.90297238     0.09000
H531        H  0.06648621  0.39444680  0.90052857     0.06500
H532        H  0.00704126  0.31202801  0.83520860     0.06400
C533        C  0.13112553  0.04307840  0.64768076     0.03400
C534        C  0.10774265  0.04207712  0.61601395    -0.12800
C535        C  0.09521135  0.00746796  0.60177367     0.00900
C536        C  0.10685402  0.97386302  0.61874855    -0.11300
C537        C  0.13056965  0.97477185  0.65013420     0.03400
C538        C  0.14243271  0.00943067  0.66457039    -0.10700
H539        H  0.09891841  0.06806556  0.60282491     0.09000
H540        H  0.09771984  0.94714738  0.60732062     0.06500
H541        H  0.16138923  0.01018506  0.68839373     0.06400
C542        C  0.47335896  0.14758375  0.62770682     0.03400
C543        C  0.47255358  0.11512023  0.60524045    -0.12800
C544        C  0.50618560  0.09752030  0.59436608     0.00900
C545        C  0.54062685  0.11262465  0.60617356    -0.11300
C546        C  0.54155342  0.14528217  0.62845302     0.03400
C547        C  0.50783745  0.16277852  0.63861981    -0.10700
H548        H  0.44594432  0.10378887  0.59598054     0.09000
H549        H  0.56656937  0.09976411  0.59680663     0.06500
H550        H  0.50836584  0.18784083  0.65605169     0.06400
C551        C  0.36892503  0.47362420  0.85415818     0.03400
C552        C  0.35873913  0.50874257  0.83981502    -0.12800
C553        C  0.37231978  0.54188396  0.85597161     0.00900
C554        C  0.39559262  0.53974500  0.88783723    -0.11300
C555        C  0.40558991  0.50451771  0.90285386     0.03400
C556        C  0.39197747  0.47152053  0.88599624    -0.10700
H557        H  0.33990502  0.51026280  0.81592976     0.09000
H558        H  0.40631141  0.56526145  0.90053261     0.06500
H559        H  0.39986451  0.44435728  0.89726949     0.06400
C560        C  0.86296425  0.03195741  0.64333162     0.03400
C561        C  0.85192176  0.99755970  0.65828041    -0.12800
C562        C  0.86546447  0.96391837  0.64305681     0.00900
C563        C  0.89098730  0.96474406  0.61319706    -0.11300
C564        C  0.90215284  0.99939832  0.59819978     0.03400
C565        C  0.88781698  0.03300829  0.61308736    -0.10700
H566        H  0.83244067  0.99695442  0.68165451     0.09000
H567        H  0.90200809  0.93872150  0.60167346     0.06500
H568        H  0.89671757  0.05979123  0.60180289     0.06400
C569        C  0.96063747  0.63794674  0.86076194     0.03400
C570        C  0.99372032  0.65440218  0.84778614    -0.12800
C571        C  0.02881252  0.64054203  0.85904543     0.00900
C572        C  0.03040213  0.60900936  0.88275336    -0.11300
C573        C  0.99715338  0.59284098  0.89632461     0.03400
C574        C  0.96234952  0.60738318  0.88522859    -0.10700
H575        H  0.99207869  0.67847198  0.82923600     0.09000
H576        H  0.05728526  0.59800397  0.89178105     0.06500
H577        H  0.93671671  0.59533652  0.89611244     0.06400
C578        C  0.46285180  0.85007829  0.62669996     0.03400
C579        C  0.49636023  0.83620639  0.64182406    -0.12800
C580        C  0.53086100  0.85254331  0.63293165     0.00900
C581        C  0.53167023  0.88439774  0.60957453    -0.11300
C582        C  0.49822478  0.89914554  0.59445655     0.03400
C583        C  0.46392433  0.88177043  0.60308698    -0.10700
H584        H  0.49559582  0.81288910  0.66132822     0.09000
H585        H  0.55816173  0.89750525  0.60286279     0.06500
H586        H  0.43813216  0.89282958  0.59134185     0.06400
C587        C  0.63540555  0.53373329  0.85720043     0.03400
C588        C  0.61110746  0.53309492  0.88830315    -0.12800
C589        C  0.59977748  0.49858935  0.90385251     0.00900
C590        C  0.61293115  0.46477957  0.88787926    -0.11300
C591        C  0.63672076  0.46540069  0.85646136     0.03400
C592        C  0.64804153  0.49985125  0.84151708    -0.10700
H593        H  0.60086283  0.55926492  0.90018473     0.09000
H594        H  0.60405891  0.43809882  0.89939226     0.06500
H595        H  0.66708241  0.50029780  0.81778517     0.06400
C596        C  0.84985672  0.63769024  0.46396800     0.03400
C597        C  0.83296294  0.65001379  0.49725253    -0.12800
C598        C  0.84645507  0.63804376  0.53214097     0.00900
C599        C  0.87749132  0.61360633  0.53366310    -0.11300
C600        C  0.89487572  0.60127274  0.50030347     0.03400
C601        C  0.88085701  0.61338499  0.46543174    -0.10700
H602        H  0.80943422  0.66936563  0.49599788     0.09000
H603        H  0.88799138  0.60416233  0.56061894     0.06500
H604        H  0.89389929  0.60378502  0.43961340     0.06400
C605        C  0.19888505  0.36480024  0.41720430    -0.20000
C606        C  0.15984688  0.36246508  0.42207110    -0.06600
C607        C  0.13839074  0.34263307  0.39527302     0.14300
C608        C  0.15649273  0.32527989  0.36485732    -0.20100
C609        C  0.19580925  0.32590158  0.36066970    -0.06600
C610        C  0.21723225  0.34667106  0.38711799     0.14200
C611        C  0.25934462  0.34901745  0.38495141    -0.23400
H612        H  0.21528478  0.37982267  0.43801515     0.15500
H613        H  0.13950301  0.31005673  0.34471433     0.15600
C614        C  0.09666790  0.33739348  0.39968801    -0.23400
H615        H  0.27119740  0.36594112  0.40837108     0.05800
H616        H  0.26776988  0.36264422  0.35826270     0.09000
H617        H  0.27177603  0.32041108  0.38669690     0.09000
H618        H  0.09046902  0.32478338  0.42749064     0.09000
H619        H  0.08502800  0.31844395  0.37776470     0.09000
H620        H  0.08193444  0.36472480  0.39704124     0.05800
C621        C  0.32772905  0.40635165  0.14196326    -0.20000
C622        C  0.35415403  0.42566690  0.16352818    -0.06600
C623        C  0.36313409  0.41249251  0.19988395     0.14300
C624        C  0.34473520  0.38069785  0.21397826    -0.20100
C625        C  0.31734682  0.36158391  0.19285629    -0.06600
C626        C  0.30894797  0.37479562  0.15595472     0.14200
C627        C  0.27963257  0.35706442  0.13100148    -0.23400
H628        H  0.32079463  0.41698108  0.11427521     0.15500
H629        H  0.35185057  0.37100176  0.24194423     0.15600
C630        C  0.39213804  0.43105403  0.22445944    -0.23400
H631        H  0.27655505  0.37209330  0.10385292     0.05800
H632        H  0.25189402  0.35791817  0.14510096     0.09000
H633        H  0.28766568  0.32765656  0.12424482     0.09000
H634        H  0.37869934  0.44141501  0.25067744     0.09000
H635        H  0.40613516  0.45504679  0.21059971     0.09000
H636        H  0.41416707  0.41023368  0.23191216     0.05800
C637        C  0.42206685  0.20050341  0.35744169    -0.20000
C638        C  0.42886647  0.16181417  0.35284343    -0.06600
C639        C  0.40322028  0.14008038  0.33192913     0.14300
C640        C  0.37168394  0.15753568  0.31609799    -0.20100
C641        C  0.36506590  0.19656007  0.31956481    -0.06600
C642        C  0.39070141  0.21824841  0.34107814     0.14200
C643        C  0.38614453  0.26008003  0.34634640    -0.23400
H644        H  0.44208043  0.21711250  0.37324012     0.15500
H645        H  0.35245118  0.14030013  0.30004985     0.15600
C646        C  0.40995002  0.09884274  0.32422542    -0.23400
H647        H  0.40909791  0.27219564  0.36360048     0.05800
H648        H  0.35936295  0.26623775  0.36101960     0.09000
H649        H  0.38662064  0.27430537  0.31862872     0.09000
H650        H  0.40872897  0.08260983  0.35070919     0.09000
H651        H  0.43778625  0.09481400  0.31084449     0.09000
H652        H  0.38848763  0.08694485  0.30500041     0.05800
C653        C  0.33107490  0.18878662  0.06820355    -0.20000
C654        C  0.33158418  0.15001696  0.06182033    -0.06600
C655        C  0.31437969  0.12565256  0.08785363     0.14300
C656        C  0.29675075  0.14101759  0.11977948    -0.20100
C657        C  0.29556107  0.18009627  0.12579428    -0.06600
C658        C  0.31345466  0.20423478  0.09975036     0.14200
C659        C  0.31536353  0.24628887  0.10530823    -0.23400
H660        H  0.34461352  0.20714452  0.04813184     0.15500
H661        H  0.28348273  0.12251983  0.13987540     0.15600
C662        C  0.31357915  0.08375304  0.08145651    -0.23400
H663        H  0.33293483  0.26001794  0.08361239     0.05800
H664        H  0.32780574  0.25288572  0.13316993     0.09000
H665        H  0.28690236  0.25875466  0.10317180     0.09000
H666        H  0.34248009  0.07219012  0.08153816     0.09000
H667        H  0.30010650  0.07746892  0.05401761     0.09000
H668        H  0.29755656  0.06911975  0.10375483     0.05800
C669        C  0.12326145  0.30400225  0.14387768    -0.20000
C670        C  0.12634791  0.30024757  0.18308602    -0.06600
C671        C  0.09924669  0.31775494  0.20657342     0.14300
C672        C  0.06993545  0.33808452  0.19021602    -0.20100
C673        C  0.06633069  0.34099347  0.15117105    -0.06600
C674        C  0.09322244  0.32373008  0.12755608     0.14200
C675        C  0.08952033  0.32456183  0.08534348    -0.23400
H676        H  0.14408605  0.29086312  0.12591902     0.15500
H677        H  0.04906164  0.35135507  0.20806173     0.15600
C678        C  0.10108681  0.31606378  0.24894875    -0.23400
H679        H  0.11169192  0.30750723  0.07144187     0.05800
H680        H  0.09212130  0.35374873  0.07491620     0.09000
H681        H  0.06191486  0.31300249  0.07683210     0.09000
H682        H  0.12845462  0.32697151  0.25897373     0.09000
H683        H  0.09720625  0.28669373  0.25855763     0.09000
H684        H  0.07871611  0.33326109  0.26236189     0.05800
C685        C  0.18881713  0.07094146  0.34263907    -0.20000
C686        C  0.14984954  0.06670961  0.34322226    -0.06600
C687        C  0.12671229  0.09386785  0.32588079     0.14300
C688        C  0.14343585  0.12441260  0.30764172    -0.20100
C689        C  0.18261355  0.12798583  0.30588002    -0.06600
C690        C  0.20560647  0.10118863  0.32431975     0.14200
C691        C  0.24774768  0.10452003  0.32586523    -0.23400
H692        H  0.20624952  0.04997804  0.35626618     0.15500
H693        H  0.12584513  0.14517822  0.29396035     0.15600
C694        C  0.08466272  0.08997598  0.32516136    -0.23400
H695        H  0.26057597  0.08244514  0.34381030     0.05800
H696        H  0.25568193  0.13225647  0.33780572     0.09000
H697        H  0.25982061  0.10121006  0.29732161     0.09000
H698        H  0.07329190  0.09132041  0.35411910     0.09000
H699        H  0.07687276  0.06274243  0.31203644     0.09000
H700        H  0.07116618  0.11284303  0.30876884     0.05800
C701        C  0.83033525  0.31421460  0.43359286    -0.20000
C702        C  0.83237681  0.35354420  0.43592603    -0.06600
C703        C  0.81614258  0.37559408  0.40710020     0.14300
C704        C  0.79902529  0.35758451  0.37625257    -0.20100
C705        C  0.79777950  0.31823381  0.37376781    -0.06600
C706        C  0.81334076  0.29631669  0.40291494     0.14200
C707        C  0.81143632  0.25397744  0.40204820    -0.23400
H708        H  0.84222568  0.29738258  0.45601323     0.15500
H709        H  0.78721407  0.37421177  0.35365322     0.15600
C710        C  0.81581789  0.41790403  0.40925958    -0.23400
H711        H  0.82369302  0.24133134  0.42779951     0.05800
H712        H  0.82721077  0.24284240  0.37753729     0.09000
H713        H  0.78174490  0.24496369  0.40003823     0.09000
H714        H  0.84483550  0.42886935  0.40863161     0.09000
H715        H  0.80189039  0.42717667  0.43561939     0.09000
H716        H  0.80042297  0.43051571  0.38523707     0.05800
C717        C  0.64486531  0.37595112  0.20841965    -0.20000
C718        C  0.68393126  0.37147841  0.20652708    -0.06600
C719        C  0.70564737  0.39884890  0.18780666     0.14300
C720        C  0.68768307  0.42916434  0.17031578    -0.20100
C721        C  0.64859739  0.43291588  0.17083320    -0.06600
C722        C  0.62687095  0.40639822  0.19063114     0.14200
C723        C  0.58496063  0.41052936  0.19353211    -0.23400
H724        H  0.62833821  0.35499969  0.22288155     0.15500
H725        H  0.70424798  0.45014352  0.15590551     0.15600
C726        C  0.74789704  0.39680953  0.18692135    -0.23400
H727        H  0.57248121  0.38797998  0.21097391     0.05800
H728        H  0.57214090  0.40895982  0.16516454     0.09000
H729        H  0.57785556  0.43802659  0.20661934     0.09000
H730        H  0.75733456  0.37182580  0.17072866     0.09000
H731        H  0.75897889  0.39523598  0.21604473     0.09000
H732        H  0.76026514  0.42193898  0.17333945     0.05800
C733        C  0.67646613  0.12810001  0.09592604    -0.20000
C734        C  0.65695365  0.15231453  0.07172902    -0.06600
C735        C  0.65442404  0.19092939  0.08045702     0.14300
C736        C  0.67341409  0.20487299  0.11190052    -0.20100
C737        C  0.69447929  0.18118570  0.13542954    -0.06600
C738        C  0.69504571  0.14197702  0.12799015     0.14200
C739        C  0.71587628  0.11475844  0.15284079    -0.23400
H740        H  0.67780091  0.09837525  0.08920928     0.15500
H741        H  0.67166184  0.23466778  0.11819324     0.15600
C742        C  0.63120168  0.21746958  0.05696843    -0.23400
H743        H  0.71470279  0.08559343  0.14165970     0.05800
H744        H  0.70312639  0.11451638  0.18128088     0.09000
H745        H  0.74579523  0.12296510  0.15487681     0.09000
H746        H  0.60197318  0.20703076  0.05506708     0.09000
H747        H  0.64318083  0.21974346  0.02837008     0.09000
H748        H  0.63036433  0.24620225  0.06925614     0.05800
C749        C  0.80182193  0.10887002  0.31991840    -0.20000
C750        C  0.82593751  0.13394889  0.30164029    -0.06600
C751        C  0.86509847  0.12723528  0.30240917     0.14300
C752        C  0.87884206  0.09524158  0.32106995    -0.20100
C753        C  0.85439496  0.07005732  0.33863673    -0.06600
C754        C  0.81546154  0.07709825  0.33837092     0.14200
C755        C  0.78812943  0.05153626  0.35801328    -0.23400
H756        H  0.77190816  0.11433574  0.32010913     0.15500
H757        H  0.90866063  0.08927589  0.32118337     0.15600
C758        C  0.89234322  0.15258618  0.28255626    -0.23400
H759        H  0.75903913  0.06270173  0.35681789     0.05800
H760        H  0.79608071  0.04864249  0.38803507     0.09000
H761        H  0.78791778  0.02342415  0.34451046     0.09000
H762        H  0.89210473  0.18091563  0.29568133     0.09000
H763        H  0.88464891  0.15482295  0.25240166     0.09000
H764        H  0.92148694  0.14161478  0.28421956     0.05800
C765        C  0.59084785  0.14087910  0.32506951    -0.20000
C766        C  0.56845129  0.16257090  0.34902263    -0.06600
C767        C  0.57955141  0.19956178  0.35817440     0.14300
C768        C  0.61252385  0.21419203  0.34246949    -0.20100
C769        C  0.63490785  0.19290516  0.31767402    -0.06600
C770        C  0.62375912  0.15529395  0.30912367     0.14200
C771        C  0.64547384  0.12980297  0.28290722    -0.23400
H772        H  0.58203542  0.11250871  0.31829820     0.15500
H773        H  0.62071031  0.24262939  0.34960865     0.15600
C774        C  0.55718891  0.22341897  0.38520776    -0.23400
H775        H  0.63188062  0.10195881  0.27945850     0.05800
H776        H  0.67397351  0.12457188  0.29432528     0.09000
H777        H  0.64722675  0.14262626  0.25456205     0.09000
H778        H  0.55427664  0.20851165  0.41240570     0.09000
H779        H  0.52898282  0.22937116  0.37352715     0.09000
H780        H  0.57094488  0.25083773  0.39075916     0.05800
C781        C  0.90828844  0.32009224  0.12747932    -0.20000
C782        C  0.92831859  0.34571018  0.14970522    -0.06600
C783        C  0.91732439  0.35238512  0.18721156     0.14300
C784        C  0.88728145  0.33229029  0.20204099    -0.20100
C785        C  0.86738917  0.30617143  0.18021907    -0.06600
C786        C  0.87769168  0.30025212  0.14224720     0.14200
C787        C  0.85787925  0.27191400  0.11782357    -0.23400
H788        H  0.91745011  0.31472390  0.09890858     0.15500
H789        H  0.87906101  0.33743275  0.23095656     0.15600
C790        C  0.93677069  0.38038692  0.21241565    -0.23400
H791        H  0.87109797  0.26948056  0.08966122     0.05800
H792        H  0.82826516  0.28049914  0.11357335     0.09000
H793        H  0.85892665  0.24381649  0.13128857     0.09000
H794        H  0.95937686  0.39599767  0.19799957     0.09000
H795        H  0.94915959  0.36555942  0.23688781     0.09000
H796        H  0.91605332  0.40137764  0.22274395     0.05800
C797        C  0.15869181  0.68271380  0.37463117    -0.20000
C798        C  0.19771273  0.67812379  0.36974638    -0.06600
C799        C  0.21801876  0.65796601  0.39747751     0.14300
C800        C  0.19876492  0.64335078  0.42873843    -0.20100
C801        C  0.16004726  0.64919694  0.43375777    -0.06600
C802        C  0.13993690  0.66971370  0.40646064     0.14200
C803        C  0.09921747  0.68074778  0.41060911    -0.23400
H804        H  0.14234283  0.69810759  0.35407651     0.15500
H805        H  0.21419383  0.62796254  0.45000718     0.15600
C806        C  0.25983634  0.65241079  0.39519133    -0.23400
H807        H  0.08255029  0.66736999  0.38788852     0.05800
H808        H  0.09647784  0.71175518  0.40815120     0.09000
H809        H  0.08682739  0.67312005  0.43798006     0.09000
H810        H  0.27404201  0.68012374  0.39501592     0.09000
H811        H  0.26709665  0.63639554  0.36936203     0.09000
H812        H  0.27082143  0.63638067  0.41959277     0.05800
C813        C  0.37067575  0.83955723  0.31619636    -0.20000
C814        C  0.36509277  0.80063080  0.32147918    -0.06600
C815        C  0.39171699  0.78030660  0.34314260     0.14300
C816        C  0.42306448  0.79917953  0.35777676    -0.20100
C817        C  0.42875417  0.83763152  0.35140798    -0.06600
C818        C  0.40219117  0.85812938  0.33044546     0.14200
C819        C  0.40788018  0.89910407  0.32122684    -0.23400
H820        H  0.35070753  0.85574752  0.29992164     0.15500
H821        H  0.44384949  0.78366841  0.37374961     0.15600
C822        C  0.38811590  0.73880337  0.35064612    -0.23400
H823        H  0.38544656  0.91008441  0.30255116     0.05800
H824        H  0.43509879  0.90282197  0.30662746     0.09000
H825        H  0.40753190  0.91629929  0.34726006     0.09000
H826        H  0.38858011  0.72293517  0.32372975     0.09000
H827        H  0.36165906  0.73322028  0.36600182     0.09000
H828        H  0.41154496  0.72800555  0.36817428     0.05800
C829        C  0.29521112  0.85655047  0.12781960    -0.20000
C830        C  0.30248312  0.81835424  0.13466132    -0.06600
C831        C  0.32850255  0.79872258  0.11171935     0.14300
C832        C  0.34530198  0.81739869  0.08162779    -0.20100
C833        C  0.33705080  0.85509003  0.07410376    -0.06600
C834        C  0.31205758  0.87511587  0.09748478     0.14200
C835        C  0.30248787  0.91562302  0.08974130    -0.23400
H836        H  0.27564499  0.87161274  0.14570644     0.15500
H837        H  0.36452617  0.80235734  0.06332544     0.15600
C838        C  0.33957745  0.75845420  0.11929009    -0.23400
H839        H  0.28209384  0.92697112  0.11048127     0.05800
H840        H  0.28997429  0.91821304  0.06128082     0.09000
H841        H  0.32826096  0.93293955  0.09120752     0.09000
H842        H  0.31524218  0.73960699  0.11504964     0.09000
H843        H  0.35008932  0.75576206  0.14854493     0.09000
H844        H  0.36215440  0.74870289  0.10007070     0.05800
C845        C  0.07442814  0.65754621  0.18271831    -0.20000
C846        C  0.07037454  0.66068365  0.14374681    -0.06600
C847        C  0.09750975  0.67999836  0.12260564     0.14300
C848        C  0.12814998  0.69617802  0.14127262    -0.20100
C849        C  0.13157453  0.69427023  0.18059634    -0.06600
C850        C  0.10439089  0.67431841  0.20159094     0.14200
C851        C  0.10660721  0.66999908  0.24374601    -0.23400
H852        H  0.05324631  0.64266344  0.19858942     0.15500
H853        H  0.14897502  0.71129011  0.12518926     0.15600
C854        C  0.09337897  0.68485216  0.08076967    -0.23400
H855        H  0.08416566  0.65145665  0.25467462     0.05800
H856        H  0.10309456  0.69775418  0.25766122     0.09000
H857        H  0.13395708  0.65735760  0.25174928     0.09000
H858        H  0.06656719  0.69947837  0.07446227     0.09000
H859        H  0.09358505  0.65698821  0.06667010     0.09000
H860        H  0.11657654  0.70175446  0.06882687     0.05800
C861        C  0.31477961  0.57237070  0.15987986    -0.20000
C862        C  0.35274777  0.56480071  0.16619895    -0.06600
C863        C  0.37351774  0.58851647  0.19028998     0.14300
C864        C  0.35569367  0.61962807  0.20737921    -0.20100
C865        C  0.31772486  0.62765536  0.20040434    -0.06600
C866        C  0.29702057  0.60351276  0.17633784     0.14200
C867        C  0.25582064  0.60959883  0.16859776    -0.23400
H868        H  0.29889216  0.55357093  0.14192743     0.15500
H869        H  0.37158138  0.63810914  0.22562650     0.15600
C870        C  0.41420605  0.58061519  0.19828583    -0.23400
H871        H  0.24367248  0.58617921  0.15190332     0.05800
H872        H  0.25152010  0.63570810  0.15217700     0.09000
H873        H  0.24016336  0.61145793  0.19549945     0.09000
H874        H  0.43046807  0.58146772  0.17172355     0.09000
H875        H  0.41723570  0.55235155  0.21110846     0.09000
H876        H  0.42628450  0.60164640  0.21795225     0.05800
C877        C  0.20194911  0.88836659  0.32594628    -0.20000
C878        C  0.17824843  0.86518430  0.30465821    -0.06600
C879        C  0.13927586  0.87299430  0.30370984     0.14300
C880        C  0.12540497  0.90458432  0.32313443    -0.20100
C881        C  0.14947939  0.92810371  0.34350520    -0.06600
C882        C  0.18805303  0.91949854  0.34560893     0.14200
C883        C  0.21456528  0.94270638  0.36913229    -0.23400
H884        H  0.23159973  0.88179934  0.32761877     0.15500
H885        H  0.09584583  0.91158633  0.32164738     0.15600
C886        C  0.11242275  0.84921926  0.28126923    -0.23400
H887        H  0.24335092  0.93070966  0.36912991     0.05800
H888        H  0.20452715  0.94366603  0.39865003     0.09000
H889        H  0.21638359  0.97172171  0.35804658     0.09000
H890        H  0.11124810  0.82041234  0.29303537     0.09000
H891        H  0.12157608  0.84792633  0.25147501     0.09000
H892        H  0.08351781  0.86091110  0.28195493     0.05800
C893        C  0.83058773  0.70278935  0.38264985    -0.20000
C894        C  0.80095208  0.68428054  0.36428188    -0.06600
C895        C  0.78915777  0.64883755  0.37764750     0.14300
C896        C  0.80674681  0.63341011  0.40950657    -0.20100
C897        C  0.83582194  0.65246316  0.42798183    -0.06600
C898        C  0.84816582  0.68737706  0.41418078     0.14200
C899        C  0.87952289  0.70933682  0.43223077    -0.23400
H900        H  0.84002342  0.72987631  0.37253706     0.15500
H901        H  0.79738996  0.60666172  0.42049403     0.15600
C902        C  0.75884853  0.62681042  0.35810955    -0.23400
H903        H  0.90200360  0.71414500  0.41125061     0.05800
H904        H  0.89231489  0.69478650  0.45659062     0.09000
H905        H  0.86868270  0.73696809  0.44205846     0.09000
H906        H  0.76655172  0.62218632  0.32821028     0.09000
H907        H  0.73184720  0.64230055  0.35973546     0.09000
H908        H  0.75467159  0.59887230  0.37126012     0.05800
C909        C  0.68739470  0.62285132  0.16131330    -0.20000
C910        C  0.67673870  0.63516616  0.19751576    -0.06600
C911        C  0.64736403  0.61578840  0.21606846     0.14300
C912        C  0.63116636  0.58409920  0.19869798    -0.20100
C913        C  0.64303708  0.57146919  0.16321221    -0.06600
C914        C  0.67119499  0.59144462  0.14408248     0.14200
C915        C  0.68615829  0.57976690  0.10610555    -0.23400
H916        H  0.70945613  0.63724930  0.14626773     0.15500
H917        H  0.60957624  0.56848049  0.21322532     0.15600
C918        C  0.63267051  0.62796569  0.25390956    -0.23400
H919        H  0.68133644  0.60279374  0.08565515     0.05800
H920        H  0.67309026  0.55398607  0.09472399     0.09000
H921        H  0.71674934  0.57435735  0.10824821     0.09000
H922        H  0.62245766  0.65745039  0.25243795     0.09000
H923        H  0.65508769  0.62550742  0.27540351     0.09000
H924        H  0.60888312  0.61025146  0.26323989     0.05800
C925        C  0.65630715  0.81403456  0.07144022    -0.20000
C926        C  0.66007756  0.85271924  0.06559639    -0.06600
C927        C  0.68354321  0.87407737  0.08921463     0.14300
C928        C  0.70222280  0.85619183  0.11890664    -0.20100
C929        C  0.69855264  0.81734575  0.12491917    -0.06600
C930        C  0.67520778  0.79594062  0.10078398     0.14200
C931        C  0.66896883  0.75438329  0.10625975    -0.23400
H932        H  0.63855857  0.79790507  0.05265968     0.15500
H933        H  0.72006031  0.87257025  0.13735479     0.15600
C934        C  0.68965373  0.91537971  0.08246224    -0.23400
H935        H  0.64829658  0.74297051  0.08588222     0.05800
H936        H  0.65808921  0.74909919  0.13498042     0.09000
H937        H  0.69561395  0.73876308  0.10200105     0.09000
H938        H  0.66266170  0.93079250  0.08486668     0.09000
H939        H  0.70136244  0.91959859  0.05388820     0.09000
H940        H  0.70953082  0.92763563  0.10313826     0.05800
C941        C  0.61153695  0.78703089  0.33736584    -0.20000
C942        C  0.63366547  0.80908602  0.31331561    -0.06600
C943        C  0.62279740  0.84727757  0.30704874     0.14300
C944        C  0.59020165  0.86138421  0.32406514    -0.20100
C945        C  0.56787794  0.83889066  0.34692306    -0.06600
C946        C  0.57888179  0.80143715  0.35422631     0.14200
C947        C  0.55677262  0.77686866  0.38051515    -0.23400
H948        H  0.61958558  0.75817816  0.34289813     0.15500
H949        H  0.58146470  0.89013392  0.31884410     0.15600
C950        C  0.64454030  0.87387502  0.28233718    -0.23400
H951        H  0.57050282  0.74912158  0.38469306     0.05800
H952        H  0.52838416  0.77162525  0.36902703     0.09000
H953        H  0.55428824  0.79082380  0.40837159     0.09000
H954        H  0.64533177  0.86306834  0.25303795     0.09000
H955        H  0.67337701  0.87743343  0.29347138     0.09000
H956        H  0.63156250  0.90229086  0.28131042     0.05800
C957        C  0.85970648  0.87342555  0.30188340    -0.20000
C958        C  0.82042051  0.87151041  0.29917183    -0.06600
C959        C  0.79833599  0.89975994  0.31672433     0.14300
C960        C  0.81613289  0.92927819  0.33550544    -0.20100
C961        C  0.85526955  0.93195199  0.33692577    -0.06600
C962        C  0.87748726  0.90358294  0.32007357     0.14200
C963        C  0.91970506  0.90474372  0.31943365    -0.23400
H964        H  0.87676080  0.85170372  0.28887855     0.15500
H965        H  0.79931356  0.95105577  0.34874447     0.15600
C966        C  0.75602957  0.89890677  0.31678931    -0.23400
H967        H  0.93108745  0.87985076  0.33439982     0.05800
H968        H  0.93141998  0.93032424  0.33267848     0.09000
H969        H  0.92961626  0.90400836  0.28986801     0.09000
H970        H  0.74606579  0.87195327  0.32875963     0.09000
H971        H  0.74519279  0.90234063  0.28776318     0.09000
H972        H  0.74385971  0.92205133  0.33397040     0.05800
C973        C  0.89365357  0.68004271  0.19775823    -0.20000
C974        C  0.86876980  0.70028872  0.17484816    -0.06600
C975        C  0.87545003  0.70232704  0.13570284     0.14300
C976        C  0.90768435  0.68509233  0.12078253    -0.20100
C977        C  0.93261970  0.66535647  0.14397664    -0.06600
C978        C  0.92511494  0.66199029  0.18273638     0.14200
C979        C  0.94951705  0.63834653  0.20810696    -0.23400
H980        H  0.88800086  0.67767420  0.22759297     0.15500
H981        H  0.91371203  0.68728554  0.09101543     0.15600
C982        C  0.84942777  0.72330772  0.10976328    -0.23400
H983        H  0.93816337  0.63705576  0.23712543     0.05800
H984        H  0.97812706  0.65023328  0.20989446     0.09000
H985        H  0.95113370  0.60918273  0.19696423     0.09000
H986        H  0.84643039  0.75290268  0.11934620     0.09000
H987        H  0.82154740  0.70962029  0.10935683     0.09000
H988        H  0.86009084  0.72353801  0.08044512     0.05800
C989        C  0.36186173  0.38478819  0.79508031    -0.20000
C990        C  0.32284750  0.37974224  0.79400518    -0.06600
C991        C  0.29939049  0.40486301  0.81443736     0.14300
C992        C  0.31560173  0.43425382  0.83494936    -0.20100
C993        C  0.35441824  0.43953962  0.83549589    -0.06600
C994        C  0.37791867  0.41472365  0.81522250     0.14200
C995        C  0.41968632  0.42055991  0.81370289    -0.23400
H996        H  0.37980478  0.36555138  0.77963233     0.15500
H997        H  0.29783439  0.45370561  0.85037391     0.15600
C998        C  0.25731998  0.40062004  0.81574961    -0.23400
H999        H  0.43364325  0.39947964  0.79529457     0.05800
H1000       H  0.43190033  0.41792924  0.84224757     0.09000
H1001       H  0.42584609  0.44894769  0.80244707     0.09000
H1002       H  0.24989597  0.37212712  0.82590903     0.09000
H1003       H  0.24520917  0.40527636  0.78740860     0.09000
H1004       H  0.24407003  0.42141366  0.83500239     0.05800
C1005       C  0.39784926  0.18287981  0.69351606    -0.20000
C1006       C  0.37531652  0.20455106  0.66946148    -0.06600
C1007       C  0.38392059  0.20562708  0.63061590     0.14300
C1008       C  0.41565954  0.18600193  0.61726270    -0.20100
C1009       C  0.43845106  0.16513071  0.64177025    -0.06600
C1010       C  0.42900763  0.16296774  0.68015968     0.14200
C1011       C  0.45144822  0.13910600  0.70704303    -0.23400
H1012       H  0.39076140  0.18115674  0.72308317     0.15500
H1013       H  0.42316397  0.18748581  0.58779250     0.15600
C1014       C  0.36070856  0.22831922  0.60348651    -0.23400
H1015       H  0.43911027  0.13925306  0.73568822     0.05800
H1016       H  0.48049999  0.14982253  0.70934963     0.09000
H1017       H  0.45216358  0.10957700  0.69682869     0.09000
H1018       H  0.35966604  0.25813253  0.61278437     0.09000
H1019       H  0.33185095  0.21691158  0.60202738     0.09000
H1020       H  0.37259345  0.22744762  0.57464966     0.05800
C1021       C  0.15608957  0.12632384  0.70984823    -0.20000
C1022       C  0.18578769  0.14231568  0.68942499    -0.06600
C1023       C  0.19531109  0.12640463  0.65381115     0.14300
C1024       C  0.17562000  0.09501352  0.64056174    -0.20100
C1025       C  0.14681999  0.07886317  0.66146704    -0.06600
C1026       C  0.13641617  0.09497433  0.69625463     0.14200
C1027       C  0.10452202  0.08001490  0.71948657    -0.23400
H1028       H  0.14794296  0.13836054  0.73666574     0.15500
H1029       H  0.18342662  0.08217088  0.61399056     0.15600
C1030       C  0.22666619  0.14113980  0.62955146    -0.23400
H1031       H  0.08342309  0.10262861  0.72391937     0.05800
H1032       H  0.11526482  0.07069708  0.74723492     0.09000
H1033       H  0.09006484  0.05597983  0.70595812     0.09000
H1034       H  0.25349583  0.14047958  0.64536602     0.09000
H1035       H  0.22016735  0.17020433  0.62027085     0.09000
H1036       H  0.23068013  0.12394406  0.60373433     0.05800
C1037       C  0.12315270  0.28869317  0.83958751    -0.20000
C1038       C  0.14141581  0.31129913  0.81290761    -0.06600
C1039       C  0.12715936  0.34826001  0.80618587     0.14300
C1040       C  0.09492831  0.36048681  0.82523413    -0.20100
C1041       C  0.07634347  0.33727436  0.85063013    -0.06600
C1042       C  0.09084142  0.30121480  0.85844313     0.14200
C1043       C  0.07254090  0.27614373  0.88703940    -0.23400
H1044       H  0.13394695  0.26084801  0.84560071     0.15500
H1045       H  0.08345568  0.38818898  0.81962519     0.15600
C1046       C  0.14470370  0.37527173  0.77872598    -0.23400
H1047       H  0.08828544  0.24941719  0.89076583     0.05800
H1048       H  0.04368035  0.26901479  0.87797392     0.09000
H1049       H  0.07139480  0.29077248  0.91463674     0.09000
H1050       H  0.14461895  0.36294529  0.75001816     0.09000
H1051       H  0.17374399  0.38196907  0.78762205     0.09000
H1052       H  0.12913738  0.40233805  0.77724671     0.05800
C1053       C  0.15887347  0.31717048  0.56579752    -0.20000
C1054       C  0.15842048  0.35621583  0.56106570    -0.06600
C1055       C  0.17700983  0.37946991  0.58727210     0.14300
C1056       C  0.19662216  0.36284235  0.61712824    -0.20100
C1057       C  0.19825739  0.32357846  0.62124036    -0.06600
C1058       C  0.17822221  0.30045830  0.59568462     0.14200
C1059       C  0.17594099  0.25834486  0.60012967    -0.23400
H1060       H  0.14425359  0.29964818  0.54559822     0.15500
H1061       H  0.21127754  0.38061512  0.63705756     0.15600
C1062       C  0.17732441  0.42162730  0.58313029    -0.23400
H1063       H  0.15691449  0.24545450  0.57903046     0.05800
H1064       H  0.16495578  0.25138144  0.62844668     0.09000
H1065       H  0.20401063  0.24541760  0.59619807     0.09000
H1066       H  0.14838412  0.43291858  0.58523192     0.09000
H1067       H  0.18939061  0.42932876  0.55547179     0.09000
H1068       H  0.19434008  0.43532242  0.60541687     0.05800
C1069       C  0.29646492  0.15344578  0.86755543    -0.20000
C1070       C  0.30778391  0.19016323  0.85852687    -0.06600
C1071       C  0.33335442  0.20898400  0.88262648     0.14300
C1072       C  0.34745500  0.19037963  0.91429017    -0.20100
C1073       C  0.33659190  0.15370585  0.92287795    -0.06600
C1074       C  0.31050768  0.13505536  0.89964082     0.14200
C1075       C  0.29704635  0.09619794  0.90920673    -0.23400
H1076       H  0.27668049  0.13910000  0.84943068     0.15500
H1077       H  0.36673627  0.20475852  0.93296463     0.15600
C1078       C  0.34471175  0.24930524  0.87636566    -0.23400
H1079       H  0.27653812  0.08563427  0.88822101     0.05800
H1080       H  0.28323224  0.09662091  0.93716069     0.09000
H1081       H  0.32117719  0.07641976  0.90998885     0.09000
H1082       H  0.31936364  0.26739859  0.87432407     0.09000
H1083       H  0.36156510  0.25169386  0.85031745     0.09000
H1084       H  0.36215810  0.26023058  0.89982199     0.05800
C1085       C  0.78657851  0.34874414  0.62034603    -0.20000
C1086       C  0.80753965  0.32034057  0.63825907    -0.06600
C1087       C  0.84451194  0.31249437  0.62482420     0.14300
C1088       C  0.85807399  0.33168424  0.59332093    -0.20100
C1089       C  0.83642514  0.35866078  0.57487433    -0.06600
C1090       C  0.80067848  0.36810086  0.58902344     0.14200
C1091       C  0.77772786  0.39903204  0.57146874    -0.23400
H1092       H  0.75889970  0.35584274  0.63072432     0.15500
H1093       H  0.88553901  0.32479999  0.58215185     0.00400
C1094       C  0.87027519  0.28376245  0.64253764    -0.23400
H1095       H  0.75099645  0.40375044  0.58677629     0.05800
H1096       H  0.77084207  0.39181860  0.54191905     0.09000
H1097       H  0.79385461  0.42566233  0.57209600     0.09000
H1098       H  0.85732980  0.25545898  0.64133567     0.09000
H1099       H  0.87640458  0.29182444  0.67205948     0.09000
H1100       H  0.89763384  0.28174954  0.62777592     0.05800
C1101       C  0.65468142  0.38228755  0.79120746    -0.20000
C1102       C  0.68656758  0.36602132  0.80794631    -0.06600
C1103       C  0.70113517  0.38257490  0.84150509     0.14300
C1104       C  0.68348971  0.41433621  0.85692500    -0.20100
C1105       C  0.65187391  0.43023482  0.84015930    -0.06600
C1106       C  0.63713063  0.41412834  0.80704437     0.14200
C1107       C  0.60273302  0.43047615  0.78870782    -0.23400
H1108       H  0.64322401  0.36990502  0.76583619     0.15500
H1109       H  0.69475749  0.42735082  0.88209773     0.15600
C1110       C  0.73586699  0.36810922  0.86113852    -0.23400
H1111       H  0.59445803  0.41428527  0.76330082     0.05800
H1112       H  0.60815993  0.45993810  0.78016607     0.09000
H1113       H  0.57898260  0.43005695  0.80885019     0.09000
H1114       H  0.75975969  0.36713492  0.84117565     0.09000
H1115       H  0.73064786  0.33977704  0.87294494     0.09000
H1116       H  0.74424275  0.38642912  0.88502877     0.05800
C1117       C  0.86958573  0.08314263  0.68949224    -0.20000
C1118       C  0.84879154  0.06664256  0.66045852    -0.06600
C1119       C  0.81338129  0.08117659  0.65065280     0.14300
C1120       C  0.79890688  0.11159464  0.67103403    -0.20100
C1121       C  0.81946603  0.12800198  0.70038461    -0.06600
C1122       C  0.85537006  0.11398851  0.70956414     0.14200
C1123       C  0.87799718  0.13049109  0.74129798    -0.23400
H1124       H  0.89665401  0.07133359  0.69688110     0.15500
H1125       H  0.77165694  0.12302259  0.66369885     0.15600
C1126       C  0.79107104  0.06463102  0.61870288    -0.23400
H1127       H  0.90469922  0.11493009  0.74559509     0.05800
H1128       H  0.86166573  0.12919119  0.76780722     0.09000
H1129       H  0.88504949  0.16017014  0.73509247     0.09000
H1130       H  0.78461556  0.03477713  0.62464053     0.09000
H1131       H  0.80750546  0.06634108  0.59227979     0.09000
H1132       H  0.76415961  0.07982489  0.61442626     0.05800
C1133       C  0.63048843  0.15971212  0.68483569    -0.20000
C1134       C  0.63890847  0.19775893  0.67743858    -0.06600
C1135       C  0.61658601  0.21721768  0.65070934     0.14300
C1136       C  0.58611909  0.19865857  0.63372320    -0.20100
C1137       C  0.57728268  0.16125316  0.64246682    -0.06600
C1138       C  0.60006419  0.14141565  0.66801798     0.14200
C1139       C  0.59133825  0.10153050  0.67927158    -0.23400
H1140       H  0.64726960  0.14403250  0.70478207     0.15500
H1141       H  0.56836617  0.21371994  0.61409376     0.15600
C1142       C  0.62402707  0.25744165  0.64001297    -0.23400
H1143       H  0.61081664  0.09108826  0.70127989     0.05800
H1144       H  0.59403285  0.08249682  0.65467952     0.09000
H1145       H  0.56240819  0.09995927  0.69061453     0.09000
H1146       H  0.65275016  0.25998917  0.62835584     0.09000
H1147       H  0.62083367  0.27596363  0.66498103     0.09000
H1148       H  0.60410412  0.26759194  0.61825926     0.05800
C1149       C  0.67549261  0.20245451  0.89263864    -0.20000
C1150       C  0.69723708  0.17806406  0.87042422    -0.06600
C1151       C  0.69769803  0.13919218  0.87872653     0.14300
C1152       C  0.67760005  0.12611199  0.91007391    -0.20100
C1153       C  0.65650307  0.15084378  0.93254067    -0.06600
C1154       C  0.65448222  0.18927753  0.92295503     0.14200
C1155       C  0.62988600  0.21704308  0.94360237    -0.23400
H1156       H  0.67412196  0.23210838  0.88572465     0.15500
H1157       H  0.67906279  0.09665886  0.91767897     0.15600
C1158       C  0.72032463  0.11173888  0.85567528    -0.23400
H1159       H  0.61029266  0.23048720  0.92339460     0.05800
H1160       H  0.64751840  0.23915305  0.95669215     0.09000
H1161       H  0.61264505  0.20383081  0.96578129     0.09000
H1162       H  0.75018536  0.12037516  0.85539417     0.09000
H1163       H  0.70944822  0.11077806  0.82647178     0.09000
H1164       H  0.71880053  0.08282227  0.86724505     0.05800
C1165       C  0.92923182  0.33900356  0.81569298    -0.20000
C1166       C  0.93732782  0.33361359  0.85379236    -0.06600
C1167       C  0.91256187  0.31244936  0.87629692     0.14300
C1168       C  0.88065606  0.29644473  0.85970686    -0.20100
C1169       C  0.87338466  0.30048208  0.82116388    -0.06600
C1170       C  0.89753842  0.32292781  0.79904000     0.14200
C1171       C  0.88965493  0.33115309  0.75818291    -0.23400
H1172       H  0.94809442  0.35578572  0.79881991     0.15500
H1173       H  0.86191670  0.27976347  0.87680377     0.15600
C1174       C  0.91944827  0.30512719  0.91741957    -0.23400
H1175       H  0.90992447  0.35157815  0.74639033     0.05800
H1176       H  0.86113204  0.34337549  0.75513485     0.09000
H1177       H  0.89195341  0.30503791  0.74122955     0.09000
H1178       H  0.94587799  0.31758537  0.92788381     0.09000
H1179       H  0.92099025  0.27434369  0.92228405     0.09000
H1180       H  0.89594214  0.31697066  0.93417543     0.05800
C1181       C  0.15755034  0.69689199  0.62534117    -0.20000
C1182       C  0.19384876  0.68471424  0.63586028    -0.06600
C1183       C  0.21104872  0.65568960  0.61436304     0.14300
C1184       C  0.19190006  0.64052144  0.58321063    -0.20100
C1185       C  0.15607933  0.65327938  0.57292201    -0.06600
C1186       C  0.13871259  0.68179830  0.59420967     0.14200
C1187       C  0.10094515  0.69748667  0.58322086    -0.23400
H1188       H  0.14374169  0.71904254  0.64111837     0.15500
H1189       H  0.20519541  0.61888770  0.56625386     0.15600
C1190       C  0.24941715  0.64045903  0.62353449    -0.23400
H1191       H  0.09191789  0.72062661  0.60224082     0.05800
H1192       H  0.07945602  0.67508161  0.58451151     0.09000
H1193       H  0.10219516  0.70878805  0.55419757     0.09000
H1194       H  0.24957901  0.62873717  0.65240700     0.09000
H1195       H  0.27055815  0.66312523  0.62116981     0.09000
H1196       H  0.25788628  0.61755572  0.60396957     0.05800
C1197       C  0.38588142  0.78145331  0.65533600    -0.20000
C1198       C  0.36234579  0.80512664  0.67673771    -0.06600
C1199       C  0.37013218  0.84452394  0.67697140     0.14300
C1200       C  0.40215533  0.85808197  0.65882361    -0.20100
C1201       C  0.42668820  0.83411243  0.63974744    -0.06600
C1202       C  0.41768039  0.79550091  0.63656876     0.14200
C1203       C  0.44076292  0.76931505  0.61242907    -0.23400
H1204       H  0.37973318  0.75169901  0.65359206     0.15500
H1205       H  0.40888913  0.88773862  0.66062511     0.15600
C1206       C  0.34520109  0.87325887  0.69581724    -0.23400
H1207       H  0.42833165  0.74076991  0.61106312     0.05800
H1208       H  0.46952578  0.76633188  0.62376518     0.09000
H1209       H  0.44218958  0.78047570  0.58336179     0.09000
H1210       H  0.34518919  0.86913241  0.72671071     0.09000
H1211       H  0.31649960  0.87084047  0.68430841     0.09000
H1212       H  0.35462740  0.90251332  0.69065678     0.05800
C1213       C  0.12091629  0.69487671  0.85366682    -0.20000
C1214       C  0.12472141  0.69950285  0.81461250    -0.06600
C1215       C  0.09750612  0.68310478  0.79054214     0.14300
C1216       C  0.06747733  0.66318223  0.80618399    -0.20100
C1217       C  0.06322415  0.65939411  0.84517279    -0.06600
C1218       C  0.09028389  0.67575694  0.86931219     0.14200
C1219       C  0.08725748  0.67524047  0.91157073    -0.23400
H1220       H  0.14157244  0.70715681  0.87234911     0.15500
H1221       H  0.04677194  0.65059926  0.78775427     0.15600
C1222       C  0.10007555  0.68541475  0.74828076    -0.23400
H1223       H  0.11134628  0.65945728  0.92353924     0.05800
H1224       H  0.06107518  0.66246698  0.92185593     0.09000
H1225       H  0.08788125  0.70451235  0.92249237     0.09000
H1226       H  0.12732652  0.67374996  0.73858611     0.09000
H1227       H  0.09714215  0.71506584  0.73911775     0.09000
H1228       H  0.07750207  0.66917575  0.73422088     0.05800
C1229       C  0.34687141  0.62057206  0.78830298    -0.20000
C1230       C  0.32120128  0.64160737  0.80994635    -0.06600
C1231       C  0.31653302  0.63170734  0.84862078     0.14300
C1232       C  0.33550417  0.60030768  0.86315930    -0.20100
C1233       C  0.35912378  0.57836825  0.84077300    -0.06600
C1234       C  0.36595170  0.58929123  0.80326219     0.14200
C1235       C  0.39386848  0.56835646  0.77916928    -0.23400
H1236       H  0.35174652  0.62822687  0.75928294     0.15500
H1237       H  0.33068625  0.59178353  0.89198593     0.15600
C1238       C  0.29142492  0.65315608  0.87532486    -0.23400
H1239       H  0.39730547  0.58179820  0.75126924     0.05800
H1240       H  0.38461751  0.53903573  0.77431635     0.09000
H1241       H  0.42160823  0.56806714  0.79333291     0.09000
H1242       H  0.26188205  0.65181240  0.86565960     0.09000
H1243       H  0.30084540  0.68272083  0.87731679     0.09000
H1244       H  0.29223131  0.64146711  0.90422906     0.05800
C1245       C  0.29702717  0.86291568  0.87786133    -0.20000
C1246       C  0.29711875  0.82362762  0.87354894    -0.06600
C1247       C  0.31596450  0.80116624  0.90044125     0.14300
C1248       C  0.33387837  0.81850158  0.93079940    -0.20100
C1249       C  0.33275392  0.85755268  0.93580440    -0.06600
C1250       C  0.31383155  0.88016828  0.90917902     0.14200
C1251       C  0.30931465  0.92210068  0.91363784    -0.23400
H1252       H  0.28270336  0.88020772  0.85728414     0.15500
H1253       H  0.34839143  0.80134936  0.95137812     0.15600
C1254       C  0.31803762  0.75893498  0.89722364    -0.23400
H1255       H  0.32282960  0.93654585  0.88962843     0.05800
H1256       H  0.32163365  0.93312360  0.94000996     0.09000
H1257       H  0.27902304  0.92937465  0.91390035     0.09000
H1258       H  0.33012812  0.75076354  0.86961897     0.09000
H1259       H  0.28959951  0.74685573  0.90030272     0.09000
H1260       H  0.33588134  0.74636909  0.91951862     0.05800
C1261       C  0.14161369  0.88254865  0.70292275    -0.20000
C1262       C  0.18052289  0.87685033  0.70011936    -0.06600
C1263       C  0.20219321  0.90259624  0.67897845     0.14300
C1264       C  0.18467867  0.93362205  0.66234529    -0.20100
C1265       C  0.14615712  0.93980133  0.66609939    -0.06600
C1266       C  0.12418162  0.91392902  0.68633487     0.14200
C1267       C  0.08269693  0.91999370  0.69137606    -0.23400
H1268       H  0.12490830  0.86276012  0.71874303     0.15500
H1269       H  0.20121769  0.95354737  0.64646800     0.15600
C1270       C  0.24365269  0.89737206  0.67293577    -0.23400
H1271       H  0.07000206  0.89775157  0.70904709     0.05800
H1272       H  0.06845676  0.91954605  0.66365688     0.09000
H1273       H  0.07754868  0.94755648  0.70521954     0.09000
H1274       H  0.24923518  0.86915494  0.66066579     0.09000
H1275       H  0.25859935  0.90053240  0.70008985     0.09000
H1276       H  0.25528097  0.91864327  0.65340451     0.05800
C1277       C  0.78940714  0.64841169  0.62225619    -0.20000
C1278       C  0.79567154  0.68640031  0.63094907    -0.06600
C1279       C  0.81805256  0.70830988  0.60650082     0.14300
C1280       C  0.83419225  0.69144397  0.57471717    -0.20100
C1281       C  0.82897760  0.65325281  0.56672244    -0.06600
C1282       C  0.80582850  0.63151544  0.59041702     0.14200
C1283       C  0.79735007  0.59077006  0.58261739    -0.23400
H1284       H  0.77217260  0.63161747  0.64076746     0.15500
H1285       H  0.85125980  0.70813751  0.55594067     0.15600
C1286       C  0.82432198  0.74978332  0.61305715    -0.23400
H1287       H  0.80743957  0.57333239  0.60640709     0.05800
H1288       H  0.81064933  0.58013505  0.55651459     0.09000
H1289       H  0.76660158  0.58709859  0.57967359     0.09000
H1290       H  0.84115943  0.75429388  0.63888142     0.09000
H1291       H  0.79694991  0.76450326  0.61573913     0.09000
H1292       H  0.83984041  0.76287792  0.58946564     0.05800
C1293       C  0.64607494  0.62131975  0.79697992    -0.20000
C1294       C  0.68189807  0.63361642  0.80780445    -0.06600
C1295       C  0.70165605  0.61329806  0.83595855     0.14300
C1296       C  0.68517434  0.58148721  0.85217421    -0.20100
C1297       C  0.64943402  0.56950269  0.84149885    -0.06600
C1298       C  0.62957403  0.58956009  0.81366508     0.14200
C1299       C  0.59124427  0.57703153  0.80130628    -0.23400
H1300       H  0.63083312  0.63677664  0.77564339     0.15500
H1301       H  0.70046750  0.56544753  0.87306864     0.15600
C1302       C  0.74075416  0.62388861  0.84821764    -0.23400
H1303       H  0.57946703  0.59574094  0.77930344     0.05800
H1304       H  0.57185901  0.57733058  0.82569947     0.09000
H1305       H  0.59286689  0.54806098  0.78967972     0.09000
H1306       H  0.74035067  0.65142693  0.86293929     0.09000
H1307       H  0.75955392  0.62526335  0.82341035     0.09000
H1308       H  0.75280849  0.60305186  0.86806785     0.05800
C1309       C  0.62383417  0.80042617  0.64492519    -0.20000
C1310       C  0.62676939  0.79942376  0.68422636    -0.06600
C1311       C  0.59847149  0.81631977  0.70640014     0.14300
C1312       C  0.56821835  0.83436553  0.68878229    -0.20100
C1313       C  0.56545314  0.83608049  0.64947350    -0.06600
C1314       C  0.59342145  0.81855345  0.62722802     0.14200
C1315       C  0.59074075  0.81799213  0.58497578    -0.23400
H1316       H  0.64576227  0.78763865  0.62807025     0.15500
H1317       H  0.54633116  0.84704533  0.70578722     0.15600
C1318       C  0.59968296  0.81453489  0.74873794    -0.23400
H1319       H  0.61407393  0.80169833  0.57211582     0.05800
H1320       H  0.59204141  0.84703351  0.57385440     0.09000
H1321       H  0.56394752  0.80483036  0.57620204     0.09000
H1322       H  0.62474862  0.82944252  0.75953728     0.09000
H1323       H  0.60073235  0.78472420  0.75785409     0.09000
H1324       H  0.57457520  0.82785285  0.76164114     0.05800
C1325       C  0.66548547  0.80603074  0.88583080    -0.20000
C1326       C  0.69225155  0.82732857  0.86652271    -0.06600
C1327       C  0.69858783  0.86509320  0.87732385     0.14300
C1328       C  0.67891193  0.88006195  0.90823525    -0.20100
C1329       C  0.65290943  0.85822569  0.92795715    -0.06600
C1330       C  0.64562583  0.82107954  0.91626697     0.14200
C1331       C  0.61716633  0.79717652  0.93628167    -0.23400
H1332       H  0.66008639  0.77734608  0.87701978     0.15500
H1333       H  0.68476986  0.90836397  0.91792198     0.15600
C1334       C  0.72722720  0.88897066  0.85764216    -0.23400
H1335       H  0.61432531  0.76904591  0.92296751     0.05800
H1336       H  0.58936531  0.81128875  0.93549621     0.09000
H1337       H  0.62564719  0.79294666  0.96598410     0.09000
H1338       H  0.71891144  0.89328391  0.82791437     0.09000
H1339       H  0.75506977  0.87496210  0.85870925     0.09000
H1340       H  0.72986604  0.91710351  0.87100728     0.05800
C1341       C  0.87345953  0.90793560  0.68365088    -0.20000
C1342       C  0.85134897  0.92830336  0.65822436    -0.06600
C1343       C  0.81434880  0.91689643  0.65069917     0.14300
C1344       C  0.79954361  0.88635039  0.67017905    -0.20100
C1345       C  0.82095951  0.86653242  0.69669649    -0.06600
C1346       C  0.85877824  0.87682123  0.70288306     0.14200
C1347       C  0.88320349  0.85629347  0.73066628    -0.23400
H1348       H  0.90185430  0.91713157  0.68925294     0.15500
H1349       H  0.77092282  0.87784010  0.66462132     0.15600
C1350       C  0.79043931  0.93702664  0.62212520    -0.23400
H1351       H  0.91129503  0.86940944  0.73321068     0.05800
H1352       H  0.88741023  0.82676517  0.72139857     0.09000
H1353       H  0.86985934  0.85675916  0.75884057     0.09000
H1354       H  0.80472881  0.93673137  0.59441226     0.09000
H1355       H  0.78562054  0.96651975  0.63107206     0.09000
H1356       H  0.76264393  0.92350361  0.61869320     0.05800
C1357       C  0.87884652  0.66609018  0.79985035    -0.20000
C1358       C  0.86065067  0.69254720  0.82294703    -0.06600
C1359       C  0.87329519  0.69801669  0.86020201     0.14300
C1360       C  0.90528453  0.67840149  0.87255067    -0.20100
C1361       C  0.92433799  0.65338910  0.84860866    -0.06600
C1362       C  0.91032931  0.64626694  0.81224129     0.14200
C1363       C  0.92802880  0.61822924  0.78569157    -0.23400
H1364       H  0.86856414  0.66101630  0.77158838     0.15500
H1365       H  0.91626752  0.68350590  0.90051522     0.15600
C1366       C  0.85441915  0.72560739  0.88626897    -0.23400
H1367       H  0.90699834  0.59669978  0.77769723     0.05800
H1368       H  0.95239653  0.60333858  0.79808255     0.09000
H1369       H  0.93755270  0.63287088  0.75992461     0.09000
H1370       H  0.82514006  0.71671140  0.89161420     0.09000
H1371       H  0.85440956  0.75404173  0.87350286     0.09000
H1372       H  0.86900338  0.72736296  0.91380795     0.05800
loop_ 
_geom_bond_atom_site_label_1 
_geom_bond_atom_site_label_2 
_geom_bond_distance 
_geom_bond_site_symmetry_2 
_ccdc_geom_bond_type 
N1            C6   1.356       .  A
N1            C5   1.354       .  A
N1           H33   1.036       .  S
N2            C9   1.352       .  A
N2           C10   1.354   1_565  A
N3            C8   1.352       .  A
N3            C7   1.355       .  A
N3           H34   1.035       .  S
N4           C11   1.355       .  A
N4           C12   1.354   1_565  A
C5           C13   1.389       .  A
C5           C21   1.418       .  A
C6           C22   1.418       .  A
C6           C14   1.387       .  A
C7           C15   1.387       .  A
C7           C24   1.416       .  A
C8           C23   1.418       .  A
C8           C16   1.390       .  A
C9           C21   1.418       .  A
C9           C17   1.387       .  A
C10          C24   1.417       .  A
C10          C18   1.386       .  A
C11          C19   1.386       .  A
C11          C22   1.420       .  A
C12          C20   1.387       .  A
C12          C23   1.421       .  A
C13          C14   1.372       .  A
C13          H25   1.082       .  S
C14          H26   1.082       .  S
C15          C16   1.370       .  A
C15          H27   1.082       .  S
C16          H28   1.082       .  S
C17          C18   1.377   1_565  A
C17          H29   1.082       .  S
C18          H30   1.082       .  S
C19          C20   1.379   1_565  A
C19          H31   1.082       .  S
C20          H32   1.082       .  S
C21         C490   1.483       .  S
C22         C582   1.495       .  S
C23         C544   1.485       .  S
C24         C418   1.490       .  S
N35          C40   1.357       .  A
N35          C39   1.357       .  A
N35          H67   1.036       .  S
N36          C43   1.353       .  A
N36          C44   1.354   1_655  A
N37          C42   1.355       .  A
N37          C41   1.356       .  A
N37          H68   1.036       .  S
N38          C45   1.353       .  A
N38          C46   1.352   1_655  A
C39          C47   1.388       .  A
C39          C55   1.421       .  A
C40          C56   1.420       .  A
C40          C48   1.388       .  A
C41          C49   1.388       .  A
C41          C58   1.418       .  A
C42          C57   1.418       .  A
C42          C50   1.388       .  A
C43          C55   1.420       .  A
C43          C51   1.387       .  A
C44          C58   1.419       .  A
C44          C52   1.386       .  A
C45          C53   1.386       .  A
C45          C56   1.418       .  A
C46          C54   1.387       .  A
C46          C57   1.418       .  A
C47          C48   1.369       .  A
C47          H59   1.082       .  S
C48          H60   1.082       .  S
C49          C50   1.368       .  A
C49          H61   1.082       .  S
C50          H62   1.082       .  S
C51          C52   1.378   1_655  A
C51          H63   1.082       .  S
C52          H64   1.082       .  S
C53          C54   1.377   1_655  A
C53          H65   1.082       .  S
C54          H66   1.083       .  S
C55         C600   1.489       .  S
C56         C454   1.490       .  S
C57         C519   1.485       .  S
C58         C499   1.490       .  S
N69          C74   1.353       .  A
N69          C73   1.356       .  A
N69         H101   1.033       .  S
N70          C77   1.356   1_554  A
N70          C78   1.354       .  A
N71          C76   1.356       .  A
N71          C75   1.354       .  A
N71         H102   1.035       .  S
N72          C79   1.354   1_554  A
N72          C80   1.355       .  A
C73          C81   1.388       .  A
C73          C89   1.420       .  A
C74          C90   1.421       .  A
C74          C82   1.389       .  A
C75          C83   1.388       .  A
C75          C92   1.418       .  A
C76          C91   1.419       .  A
C76          C84   1.388       .  A
C77          C89   1.421       .  A
C77          C85   1.386       .  A
C78          C92   1.422       .  A
C78          C86   1.387       .  A
C79          C87   1.387       .  A
C79          C90   1.421       .  A
C80          C88   1.385       .  A
C80          C91   1.420       .  A
C81          C82   1.372       .  A
C81          H93   1.082       .  S
C82          H94   1.082       .  S
C83          C84   1.370       .  A
C83          H95   1.082       .  S
C84          H96   1.082       .  S
C85          C86   1.378   1_556  A
C85          H97   1.082       .  S
C86          H98   1.082       .  S
C87          C88   1.378   1_556  A
C87          H99   1.082       .  S
C88         H100   1.082       .  S
C89         C589   1.493       .  S
C90         C555   1.487       .  S
C91         C463   1.493       .  S
C92         C445   1.489       .  S
N103        C108   1.353       .  A
N103        C107   1.354   1_556  A
N103        H135   1.035       .  S
N104        C111   1.349       .  A
N104        C112   1.349       .  A
N105        C110   1.354   1_554  A
N105        C109   1.353       .  A
N105        H136   1.033   1_554  S
N106        C113   1.351   1_455  A
N106        C114   1.351       .  A
C107        C115   1.387   1_655  A
C107        C123   1.416       .  A
C108        C124   1.417       .  A
C108        C116   1.388   1_655  A
C109        C117   1.389       .  A
C109        C126   1.418       .  A
C110        C125   1.417       .  A
C110        C118   1.388       .  A
C111        C123   1.413       .  A
C111        C119   1.387       .  A
C112        C126   1.413   1_655  A
C112        C120   1.387       .  A
C113        C121   1.386       .  A
C113        C124   1.414       .  A
C114        C122   1.387       .  A
C114        C125   1.416       .  A
C115        C116   1.368   1_554  A
C115        H127   1.082       .  S
C116        H128   1.081       .  S
C117        C118   1.369   1_554  A
C117        H129   1.082   1_455  S
C118        H130   1.082       .  S
C119        C120   1.374       .  A
C119        H131   1.083       .  S
C120        H132   1.083       .  S
C121        C122   1.374   1_655  A
C121        H133   1.082       .  S
C122        H134   1.082       .  S
C123        C472   1.478       .  S
C124        C573   1.480       .  S
C125        C526   1.481       .  S
C126        C402   1.477   1_455  S
N137        C142   1.355   1_545  A
N137        C141   1.354       .  A
N137        H169   1.032       .  S
N138        C145   1.351       .  A
N138        C146   1.352       .  A
N139        C144   1.355   1_546  A
N139        C143   1.354       .  A
N139        H170   1.036       .  S
N140        C147   1.351       .  A
N140        C148   1.350       .  A
C141        C149   1.388       .  A
C141        C157   1.419       .  A
C142        C158   1.420       .  A
C142        C150   1.388       .  A
C143        C151   1.389   1_556  A
C143        C160   1.418       .  A
C144        C159   1.415       .  A
C144        C152   1.387       .  A
C145        C157   1.418   1_556  A
C145        C153   1.387       .  A
C146        C160   1.416       .  A
C146        C154   1.386       .  A
C147        C155   1.387       .  A
C147        C158   1.417       .  A
C148        C156   1.386       .  A
C148        C159   1.414       .  A
C149        C150   1.369   1_545  A
C149        H161   1.082       .  S
C150        H162   1.082       .  S
C151        C152   1.368   1_545  A
C151        H163   1.082       .  S
C152        H164   1.082       .  S
C153        C154   1.376       .  A
C153        H165   1.083       .  S
C154        H166   1.082       .  S
C155        C156   1.375       .  A
C155        H167   1.082       .  S
C156        H168   1.082       .  S
C157        C438   1.483       .  S
C158        C508   1.484       .  S
C159        C483   1.480       .  S
C160        C411   1.483       .  S
O171        C187   1.275       .  A
O171       Zn177   2.035       .  S
C172       C1326   1.477       .  S
C172        O188   1.275       .  A
C172        O185   1.273       .  A
O173        C186   1.281       .  A
O173       Cd180   2.115       .  S
O174        C192   1.271       .  A
O174       Cd183   2.045       .  S
O175        C189   1.272       .  A
O175       Cd179   2.066       .  S
O176        C187   1.272       .  A
O176       Cd179   2.039       .  S
Zn177       O188   2.016       .  S
Zn177       O190   1.989       .  S
Zn177       O182   1.940       .  S
O178        C189   1.274       .  A
O178       Cd183   2.062       .  S
Cd179       O181   2.036       .  S
Cd179       O182   1.984       .  S
Cd180       O184   2.113       .  S
Cd180       O193   2.110       .  S
Cd180       O182   2.026       .  S
O181        C191   1.269       .  A
O182       Cd183   1.988       .  S
Cd183       O185   2.066       .  S
O184        C191   1.280       .  A
C186       C1294   1.489       .  S
C186        O190   1.270       .  A
C187       C1358   1.476       .  S
C189       C1345   1.478       .  S
C191       C1278   1.482       .  S
C192       C1310   1.477       .  S
C192        O193   1.280       .  A
O194        C210   1.274       .  A
O194       Zn200   2.025       .  S
C195       C1262   1.485       .  S
C195        O211   1.276       .  A
C195        O208   1.272       .  A
O196        C209   1.281       .  A
O196       Cd203   2.115       .  S
O197        C215   1.268       .  A
O197       Cd206   2.037       .  S
O198        C212   1.274       .  A
O198       Cd202   2.062       .  S
O199        C210   1.274       .  A
O199       Cd202   2.073       .  S
Zn200       O211   2.036       .  S
Zn200       O213   1.983       .  S
Zn200       O205   1.938       .  S
O201        C212   1.274       .  A
O201       Cd206   2.068       .  S
Cd202       O204   2.039       .  S
Cd202       O205   1.988       .  S
Cd203       O207   2.128       .  S
Cd203       O216   2.127       .  S
Cd203       O205   2.032       .  S
O204        C214   1.269       .  A
O205       Cd206   1.985       .  S
Cd206       O208   2.058       .  S
O207        C214   1.284       .  A
C209       C1182   1.501       .  S
C209        O213   1.272       .  A
C210       C1214   1.492       .  S
C212       C1246   1.480       .  S
C214       C1230   1.504       .  S
C215       C1198   1.504       .  S
C215        O216   1.282       .  A
O217        C233   1.273       .  A
O217       Zn223   2.007       .  S
C218       C1150   1.480       .  S
C218        O234   1.274       .  A
C218        O231   1.274       .  A
O219        C232   1.280       .  A
O219       Cd226   2.111       .  S
O220        C238   1.268       .  A
O220       Cd229   2.027       .  S
O221        C235   1.270       .  A
O221       Cd225   2.044       .  S
O222        C233   1.270       .  A
O222       Cd225   2.045       .  S
Zn223       O234   2.031       .  S
Zn223       O236   1.984       .  S
Zn223       O228   1.934       .  S
O224        C235   1.274       .  A
O224       Cd229   2.076       .  S
Cd225       O227   2.029       .  S
Cd225       O228   1.979       .  S
Cd226       O230   2.111       .  S
Cd226       O239   2.116       .  S
Cd226       O228   2.028       .  S
O227        C237   1.267       .  A
O228       Cd229   1.982       .  S
Cd229       O231   2.057       .  S
O230        C237   1.281       .  A
C232       C1134   1.500       .  S
C232        O236   1.272       .  A
C233       C1121   1.465       .  S
C235       C1169   1.478       .  S
C237       C1086   1.498       .  S
C238       C1102   1.493       .  S
C238        O239   1.282       .  A
O240        C256   1.273       .  A
O240       Zn246   2.012       .  S
C241       C1006   1.483       .  S
C241        O257   1.275       .  A
C241        O254   1.276       .  A
O242        C255   1.279       .  A
O242       Cd249   2.096       .  S
O243        C261   1.272       .  A
O243       Cd252   2.053       .  S
O244        C258   1.271       .  A
O244       Cd248   2.048       .  S
O245        C256   1.272       .  A
O245       Cd248   2.053       .  S
Zn246       O257   2.032       .  S
Zn246       O259   1.985       .  S
Zn246       O251   1.936       .  S
O247        C258   1.276       .  A
O247       Cd252   2.080       .  S
Cd248       O250   2.034       .  S
Cd248       O251   1.985       .  S
Cd249       O253   2.101       .  S
Cd249       O262   2.099       .  S
Cd249       O251   2.021       .  S
O250        C260   1.267       .  A
O251       Cd252   1.987       .  S
Cd252       O254   2.065       .  S
O253        C260   1.280       .  A
C255       C1022   1.494       .  S
C255        O259   1.269       .  A
C256       C1057   1.480       .  S
C258        C990   1.481       .  S
C260       C1038   1.496       .  S
C261       C1070   1.485       .  S
C261        O262   1.279       .  A
O263        C279   1.272       .  A
O263       Zn269   2.008       .  S
C264        C974   1.475       .  S
C264        O280   1.274       .  A
C264        O277   1.273       .  A
O265        C278   1.278       .  A
O265       Cd272   2.102       .  S
O266        C284   1.271       .  A
O266       Cd275   2.031       .  S
O267        C281   1.271       .  A
O267       Cd271   2.054       .  S
O268        C279   1.272       .  A
O268       Cd271   2.050       .  S
Zn269       O280   2.020       .  S
Zn269       O282   1.994       .  S
Zn269       O274   1.932       .  S
O270        C281   1.272       .  A
O270       Cd275   2.064       .  S
Cd271       O273   2.031       .  S
Cd271       O274   1.979       .  S
Cd272       O276   2.105       .  S
Cd272       O285   2.101       .  S
Cd272       O274   2.020       .  S
O273        C283   1.267       .  A
O274       Cd275   1.986       .  S
Cd275       O277   2.049       .  S
O276        C283   1.280       .  A
C278        C910   1.499       .  S
C278        O282   1.273       .  A
C279        C929   1.477       .  S
C281        C958   1.481       .  S
C283        C942   1.497       .  S
C284        C894   1.482       .  S
C284        O285   1.279       .  A
O286        C302   1.274       .  A
O286       Zn292   2.021       .  S
C287        C878   1.478       .  S
C287        O303   1.274       .  A
C287        O300   1.269       .  A
O288        C301   1.278       .  A
O288       Cd295   2.096       .  S
O289        C307   1.270       .  A
O289       Cd298   2.026       .  S
O290        C304   1.273       .  A
O290       Cd294   2.063       .  S
O291        C302   1.271       .  A
O291       Cd294   2.047       .  S
Zn292       O303   2.014       .  S
Zn292       O305   1.982       .  S
Zn292       O297   1.932       .  S
O293        C304   1.270       .  A
O293       Cd298   2.042       .  S
Cd294       O296   2.034       .  S
Cd294       O297   1.983       .  S
Cd295       O299   2.115       .  S
Cd295       O308   2.113       .  S
Cd295       O297   2.025       .  S
O296        C306   1.269       .  A
O297       Cd298   1.978       .  S
Cd298       O300   2.051       .  S
O299        C306   1.281       .  A
C301        C814   1.496       .  S
C301        O305   1.272       .  A
C302        C830   1.474       .  S
C304        C849   1.477       .  S
C306        C865   1.484       .  S
C307        C798   1.498       .  S
C307        O308   1.280       .  A
O309        C325   1.272       .  A
O309       Zn315   2.018       .  S
C310        C750   1.478       .  S
C310        O326   1.274       .  A
C310        O323   1.272       .  A
O311        C324   1.281       .  A
O311       Cd318   2.105       .  S
O312        C330   1.271       .  A
O312       Cd321   2.047       .  S
O313        C327   1.273       .  A
O313       Cd317   2.067       .  S
O314        C325   1.274       .  A
O314       Cd317   2.056       .  S
Zn315       O326   1.998       .  S
Zn315       O328   1.984       .  S
Zn315       O320   1.931       .  S
O316        C327   1.274       .  A
O316       Cd321   2.056       .  S
Cd317       O319   2.040       .  S
Cd317       O320   1.983       .  S
Cd318       O322   2.103       .  S
Cd318       O331   2.105       .  S
Cd318       O320   2.019       .  S
O319        C329   1.271       .  A
O320       Cd321   1.991       .  S
Cd321       O323   2.063       .  S
O322        C329   1.279       .  A
C324        C769   1.499       .  S
C324        O328   1.268       .  A
C325        C737   1.485       .  S
C327        C785   1.476       .  S
C329        C718   1.477       .  S
C330        C705   1.475       .  S
C330        O331   1.279       .  A
N332        C337   1.351       .  A
N332        C336   1.353   1_655  A
N332        H364   1.036   1_645  S
N333        C340   1.351       .  A
N333        C341   1.350   1_545  A
N334        C339   1.353   1_465  A
N334        C338   1.351   1_565  A
N334        H365   1.037       .  S
N335        C342   1.350   1_545  A
N335        C343   1.351   1_545  A
C336        C344   1.387       .  A
C336        C352   1.414       .  A
C337        C353   1.414       .  A
C337        C345   1.388       .  A
C338        C346   1.388       .  A
C338        C355   1.414   1_545  A
C339        C354   1.415       .  A
C339        C347   1.388       .  A
C340        C352   1.413       .  A
C340        C348   1.386   1_545  A
C341        C355   1.412       .  A
C341        C349   1.386       .  A
C342        C350   1.387       .  A
C342        C353   1.413   1_565  A
C343        C351   1.386       .  A
C343        C354   1.412   1_565  A
C344        C345   1.370   1_455  A
C344        H356   1.082       .  S
C345        H357   1.082       .  S
C346        C347   1.370   1_455  A
C346        H358   1.082       .  S
C347        H359   1.082       .  S
C348        C349   1.375       .  A
C348        H360   1.082       .  S
C349        H361   1.082       .  S
C350        C351   1.374       .  A
C350        H362   1.083       .  S
C351        H363   1.082       .  S
C352        C535   1.481       .  S
C353        C564   1.475   1_545  S
C354        C427   1.479       .  S
C355        C368   1.476       .  S
C366        C367   1.398       .  A
C366        C371   1.397   1_545  A
C366        C686   1.472       .  S
C367        C368   1.402   1_545  A
C367        H372   1.083       .  S
C368        C369   1.404       .  A
C369        C370   1.401       .  A
C369        H373   1.084       .  S
C370        C371   1.397       .  A
C370        C881   1.473       .  S
C371        H374   1.085       .  S
O375        C391   1.272       .  A
O375       Zn381   1.996       .  S
C376        C670   1.480       .  S
C376        O392   1.273       .  A
C376        O389   1.271       .  A
O377        C390   1.279       .  A
O377       Cd384   2.095       .  S
O378        C396   1.272       .  A
O378       Cd387   2.040       .  S
O379        C393   1.273       .  A
O379       Cd383   2.056       .  S
O380        C391   1.274       .  A
O380       Cd383   2.071       .  S
Zn381       O392   2.016       .  S
Zn381       O394   1.985       .  S
Zn381       O386   1.925       .  S
O382        C393   1.273       .  A
O382       Cd387   2.057       .  S
Cd383       O385   2.047       .  S
Cd383       O386   1.988       .  S
Cd384       O388   2.104       .  S
Cd384       O397   2.100       .  S
Cd384       O386   2.015       .  S
O385        C395   1.273       .  A
O386       Cd387   1.981       .  S
Cd387       O389   2.048       .  S
O388        C395   1.279       .  A
C390        C625   1.496       .  S
C390        O394   1.269       .  A
C391        C657   1.480       .  S
C393        C689   1.477       .  S
C395        C641   1.500       .  S
C396        C609   1.497       .  S
C396        O397   1.278       .  A
C398        C399   1.399   1_455  A
C398        C403   1.400       .  A
C398        C673   1.476       .  S
C399        C400   1.396       .  A
C399        H404   1.085       .  S
C400        C401   1.399       .  A
C400        C782   1.469       .  S
C401        C402   1.404       .  A
C401        H405   1.084       .  S
C402        C403   1.402   1_655  A
C403        H406   1.083       .  S
C407        C408   1.399       .  A
C407        C412   1.404       .  A
C407       C1073   1.476       .  S
C408        C409   1.401   1_556  A
C408        H413   1.085       .  S
C409        C410   1.399       .  A
C409        C654   1.475       .  S
C410        C411   1.403   1_554  A
C410        H414   1.084       .  S
C411        C412   1.406       .  A
C412        H415   1.084       .  S
C416        C417   1.405       .  A
C416        C421   1.401       .  A
C416        C766   1.483       .  S
C417        C418   1.406       .  A
C417        H422   1.084       .  S
C418        C419   1.406       .  A
C419        C420   1.407       .  A
C419        H423   1.083       .  S
C420        C421   1.402       .  A
C420        C638   1.487       .  S
C421        H424   1.084       .  S
C425        C426   1.403       .  A
C425        C430   1.397   1_565  A
C425        C961   1.475       .  S
C426        C427   1.405   1_565  A
C426        H431   1.084       .  S
C427        C428   1.405       .  A
C428        C429   1.400       .  A
C428        H432   1.084       .  S
C429        C430   1.394       .  A
C429        C753   1.472       .  S
C430        H433   1.085       .  S
C434        C435   1.399   1_556  A
C434        C439   1.402       .  A
C434       C1153   1.476       .  S
C435        C436   1.399       .  A
C435        H440   1.085       .  S
C436        C437   1.401       .  A
C436        C734   1.477       .  S
C437        C438   1.405       .  A
C437        H441   1.084       .  S
C438        C439   1.406   1_554  A
C439        H442   1.084       .  S
C443        C444   1.406       .  A
C443        C448   1.400       .  A
C443        C721   1.481       .  S
C444        C445   1.409       .  A
C444        H449   1.083       .  S
C445        C446   1.406       .  A
C446        C447   1.404       .  A
C446        H450   1.084       .  S
C447        C448   1.398       .  A
C447        C913   1.479       .  S
C448        H451   1.085       .  S
C452        C453   1.407       .  A
C452        C457   1.401       .  A
C452        C702   1.484       .  S
C453        C454   1.408       .  A
C453        H458   1.083       .  S
C454        C455   1.406       .  A
C455        C456   1.404       .  A
C455        H459   1.084       .  S
C456        C457   1.398       .  A
C456       C1089   1.479       .  S
C457        H460   1.085       .  S
C461        C462   1.405       .  A
C461        C466   1.399       .  A
C461        C622   1.479       .  S
C462        C463   1.407       .  A
C462        H467   1.084       .  S
C463        C464   1.409       .  A
C464        C465   1.407       .  A
C464        H468   1.083       .  S
C465        C466   1.400       .  A
C465        C862   1.481       .  S
C466        H469   1.085       .  S
C470        C471   1.400       .  A
C470        C475   1.397       .  A
C470        C846   1.471       .  S
C471        C472   1.404   1_455  A
C471        H476   1.084       .  S
C472        C473   1.402       .  A
C473        C474   1.399       .  A
C473        H477   1.084       .  S
C474        C475   1.396   1_655  A
C474        C977   1.471       .  S
C475        H478   1.085       .  S
C479        C480   1.395       .  A
C479        C484   1.400       .  A
C479        C833   1.470       .  S
C480        C481   1.398   1_554  A
C480        H485   1.085       .  S
C481        C482   1.402       .  A
C481       C1249   1.476       .  S
C482        C483   1.405   1_556  A
C482        H486   1.084       .  S
C483        C484   1.404       .  A
C484        H487   1.084       .  S
C488        C489   1.403       .  A
C488        C493   1.400       .  A
C488        C817   1.479       .  S
C489        C490   1.402       .  A
C489        H494   1.083       .  S
C490        C491   1.405       .  A
C491        C492   1.404       .  A
C491        H495   1.084       .  S
C492        C493   1.399       .  A
C492        C945   1.479       .  S
C493        H496   1.084       .  S
C497        C498   1.407       .  A
C497        C502   1.399       .  A
C497       C1185   1.480       .  S
C498        C499   1.407       .  A
C498        H503   1.083       .  S
C499        C500   1.406       .  A
C500        C501   1.407       .  A
C500        H504   1.084       .  S
C501        C502   1.399       .  A
C501        C801   1.484       .  S
C502        H505   1.085       .  S
C506        C507   1.402       .  A
C506        C511   1.395       .  A
C506       C1329   1.472       .  S
C507        C508   1.408   1_556  A
C507        H512   1.084       .  S
C508        C509   1.405       .  A
C509        C510   1.402       .  A
C509        H513   1.084       .  S
C510        C511   1.394   1_554  A
C510        C926   1.470       .  S
C511        H514   1.085       .  S
C515        C516   1.400       .  A
C515        C520   1.407       .  A
C515        C606   1.487       .  S
C516        C517   1.399       .  A
C516        H521   1.085       .  S
C517        C518   1.400       .  A
C517       C1054   1.474       .  S
C518        C519   1.402       .  A
C518        H522   1.084       .  S
C519        C520   1.407       .  A
C520        H523   1.082       .  S
C524        C525   1.401       .  A
C524        C529   1.401   1_655  A
C524       C1166   1.475       .  S
C525        C526   1.403   1_655  A
C525        H530   1.084       .  S
C526        C527   1.403       .  A
C527        C528   1.403       .  A
C527        H531   1.084       .  S
C528        C529   1.400       .  A
C528       C1041   1.477       .  S
C529        H532   1.084       .  S
C533        C534   1.402       .  A
C533        C538   1.399       .  A
C533       C1025   1.475       .  S
C534        C535   1.404       .  A
C534        H539   1.084       .  S
C535        C536   1.403   1_545  A
C536        C537   1.401       .  A
C536        H540   1.084       .  S
C537        C538   1.401   1_565  A
C537       C1265   1.476       .  S
C538        H541   1.084       .  S
C542        C543   1.403       .  A
C542        C547   1.400       .  A
C542       C1009   1.478       .  S
C543        C544   1.405       .  A
C543        H548   1.084       .  S
C544        C545   1.407       .  A
C545        C546   1.405       .  A
C545        H549   1.083       .  S
C546        C547   1.400       .  A
C546       C1137   1.483       .  S
C547        H550   1.085       .  S
C551        C552   1.398       .  A
C551        C556   1.402       .  A
C551        C993   1.476       .  S
C552        C553   1.398       .  A
C552        H557   1.085       .  S
C553        C554   1.407       .  A
C553       C1233   1.483       .  S
C554        C555   1.409       .  A
C554        H558   1.083       .  S
C555        C556   1.405       .  A
C556        H559   1.084       .  S
C560        C561   1.394   1_545  A
C560        C565   1.396       .  A
C560       C1118   1.463       .  S
C561        C562   1.397       .  A
C561        H566   1.085       .  S
C562        C563   1.400       .  A
C562       C1342   1.470       .  S
C563        C564   1.404       .  A
C563        H567   1.084       .  S
C564        C565   1.401   1_565  A
C565        H568   1.084       .  S
C569        C570   1.399       .  A
C569        C574   1.396       .  A
C569       C1361   1.470       .  S
C570        C571   1.403   1_655  A
C570        H575   1.084       .  S
C571        C572   1.407       .  A
C571       C1217   1.487       .  S
C572        C573   1.407   1_455  A
C572        H576   1.084       .  S
C573        C574   1.401       .  A
C574        H577   1.084       .  S
C578        C579   1.400       .  A
C578        C583   1.409       .  A
C578       C1201   1.487       .  S
C579        C580   1.401       .  A
C579        H584   1.084       .  S
C580        C581   1.408       .  A
C580       C1313   1.486       .  S
C581        C582   1.409       .  A
C581        H585   1.083       .  S
C582        C583   1.408       .  A
C583        H586   1.084       .  S
C587        C588   1.407       .  A
C587        C592   1.400       .  A
C587       C1297   1.481       .  S
C588        C589   1.409       .  A
C588        H593   1.083       .  S
C589        C590   1.407       .  A
C590        C591   1.405       .  A
C590        H594   1.084       .  S
C591        C592   1.399       .  A
C591       C1105   1.478       .  S
C592        H595   1.085       .  S
C596        C597   1.398       .  A
C596        C601   1.402       .  A
C596        C897   1.473       .  S
C597        C598   1.398       .  A
C597        H602   1.085       .  S
C598        C599   1.406       .  A
C598       C1281   1.480       .  S
C599        C600   1.408       .  A
C599        H603   1.084       .  S
C600        C601   1.406       .  A
C601        H604   1.084       .  S
C605        C606   1.407       .  A
C605        C610   1.408       .  A
C605        H612   1.084       .  S
C606        C607   1.411       .  A
C607        C608   1.401       .  A
C607        C614   1.510       .  S
C608        C609   1.411       .  A
C608        H613   1.083       .  S
C609        C610   1.419       .  A
C610        C611   1.508       .  S
C611        H615   1.111       .  S
C611        H616   1.110       .  S
C611        H617   1.110       .  S
C614        H618   1.111       .  S
C614        H619   1.111       .  S
C614        H620   1.108       .  S
C621        C622   1.397       .  A
C621        C626   1.403       .  A
C621        H628   1.085       .  S
C622        C623   1.414       .  A
C623        C624   1.404       .  A
C623        C630   1.507       .  S
C624        C625   1.408       .  A
C624        H629   1.084       .  S
C625        C626   1.427       .  A
C626        C627   1.510       .  S
C627        H631   1.111       .  S
C627        H632   1.110       .  S
C627        H633   1.109       .  S
C630        H634   1.110       .  S
C630        H635   1.108       .  S
C630        H636   1.111       .  S
C637        C638   1.406       .  A
C637        C642   1.409       .  A
C637        H644   1.084       .  S
C638        C639   1.411       .  A
C639        C640   1.402       .  A
C639        C646   1.510       .  S
C640        C641   1.412       .  A
C640        H645   1.083       .  S
C641        C642   1.421       .  A
C642        C643   1.507       .  S
C643        H647   1.111       .  S
C643        H648   1.110       .  S
C643        H649   1.110       .  S
C646        H650   1.108       .  S
C646        H651   1.110       .  S
C646        H652   1.111       .  S
C653        C654   1.397       .  A
C653        C658   1.397       .  A
C653        H660   1.085       .  S
C654        C655   1.413       .  A
C655        C656   1.407       .  A
C655        C662   1.507       .  S
C656        C657   1.406       .  A
C656        H661   1.084       .  S
C657        C658   1.420       .  A
C658        C659   1.510       .  S
C659        H663   1.111       .  S
C659        H664   1.111       .  S
C659        H665   1.109       .  S
C662        H666   1.109       .  S
C662        H667   1.110       .  S
C662        H668   1.111       .  S
C669        C670   1.406       .  A
C669        C674   1.405       .  A
C669        H676   1.084       .  S
C670        C671   1.419       .  A
C671        C672   1.397       .  A
C671        C678   1.511       .  S
C672        C673   1.399       .  A
C672        H677   1.085       .  S
C673        C674   1.413       .  A
C674        C675   1.508       .  S
C675        H679   1.111       .  S
C675        H680   1.108       .  S
C675        H681   1.111       .  S
C678        H682   1.110       .  S
C678        H683   1.110       .  S
C678        H684   1.111       .  S
C685        C686   1.400       .  A
C685        C690   1.397       .  A
C685        H692   1.085       .  S
C686        C687   1.412       .  A
C687        C688   1.403       .  A
C687        C694   1.508       .  S
C688        C689   1.406       .  A
C688        H693   1.084       .  S
C689        C690   1.418       .  A
C690        C691   1.510       .  S
C691        H695   1.111       .  S
C691        H696   1.111       .  S
C691        H697   1.109       .  S
C694        H698   1.109       .  S
C694        H699   1.110       .  S
C694        H700   1.111       .  S
C701        C702   1.403       .  A
C701        C706   1.401       .  A
C701        H708   1.084       .  S
C702        C703   1.416       .  A
C703        C704   1.409       .  A
C703        C710   1.507       .  S
C704        C705   1.403       .  A
C704        H709   1.084       .  S
C705        C706   1.412       .  A
C706        C707   1.508       .  S
C707        H711   1.111       .  S
C707        H712   1.110       .  S
C707        H713   1.110       .  S
C710        H714   1.108       .  S
C710        H715   1.110       .  S
C710        H716   1.111       .  S
C717        C718   1.404       .  A
C717        C722   1.409       .  A
C717        H724   1.084       .  S
C718        C719   1.416       .  A
C719        C720   1.400       .  A
C719        C726   1.510       .  S
C720        C721   1.401       .  A
C720        H725   1.085       .  S
C721        C722   1.414       .  A
C722        C723   1.506       .  S
C723        H727   1.111       .  S
C723        H728   1.109       .  S
C723        H729   1.110       .  S
C726        H730   1.109       .  S
C726        H731   1.110       .  S
C726        H732   1.111       .  S
C733        C734   1.403       .  A
C733        C738   1.408       .  A
C733        H740   1.084       .  S
C734        C735   1.410       .  A
C735        C736   1.398       .  A
C735        C742   1.508       .  S
C736        C737   1.405       .  A
C736        H741   1.084       .  S
C737        C738   1.419       .  A
C738        C739   1.507       .  S
C739        H743   1.111       .  S
C739        H744   1.110       .  S
C739        H745   1.110       .  S
C742        H746   1.111       .  S
C742        H747   1.107       .  S
C742        H748   1.111       .  S
C749        C750   1.404       .  A
C749        C754   1.395       .  A
C749        H756   1.084       .  S
C750        C751   1.417       .  A
C751        C752   1.406       .  A
C751        C758   1.507       .  S
C752        C753   1.402       .  A
C752        H757   1.084       .  S
C753        C754   1.411       .  A
C754        C755   1.510       .  S
C755        H759   1.111       .  S
C755        H760   1.110       .  S
C755        H761   1.108       .  S
C758        H762   1.109       .  S
C758        H763   1.110       .  S
C758        H764   1.111       .  S
C765        C766   1.397       .  A
C765        C770   1.404       .  A
C765        H772   1.085       .  S
C766        C767   1.413       .  A
C767        C768   1.406       .  A
C767        C774   1.507       .  S
C768        C769   1.408       .  A
C768        H773   1.083       .  S
C769        C770   1.429       .  A
C770        C771   1.511       .  S
C771        H775   1.111       .  S
C771        H776   1.110       .  S
C771        H777   1.110       .  S
C774        H778   1.110       .  S
C774        H779   1.109       .  S
C774        H780   1.111       .  S
C781        C782   1.402       .  A
C781        C786   1.406       .  A
C781        H788   1.084       .  S
C782        C783   1.410       .  A
C783        C784   1.396       .  A
C783        C790   1.509       .  S
C784        C785   1.403       .  A
C784        H789   1.085       .  S
C785        C786   1.415       .  A
C786        C787   1.507       .  S
C787        H791   1.111       .  S
C787        H792   1.109       .  S
C787        H793   1.110       .  S
C790        H794   1.108       .  S
C790        H795   1.110       .  S
C790        H796   1.111       .  S
C797        C798   1.412       .  A
C797        C802   1.397       .  A
C797        H804   1.084       .  S
C798        C799   1.419       .  A
C799        C800   1.410       .  A
C799        C806   1.507       .  S
C800        C801   1.408       .  A
C800        H805   1.084       .  S
C801        C802   1.411       .  A
C802        C803   1.511       .  S
C803        H807   1.110       .  S
C803        H808   1.111       .  S
C803        H809   1.105       .  S
C806        H810   1.110       .  S
C806        H811   1.110       .  S
C806        H812   1.111       .  S
C813        C814   1.413       .  A
C813        C818   1.400       .  A
C813        H820   1.083       .  S
C814        C815   1.420       .  A
C815        C816   1.406       .  A
C815        C822   1.507       .  S
C816        C817   1.403       .  A
C816        H821   1.084       .  S
C817        C818   1.408       .  A
C818        C819   1.510       .  S
C819        H823   1.111       .  S
C819        H824   1.111       .  S
C819        H825   1.108       .  S
C822        H826   1.110       .  S
C822        H827   1.110       .  S
C822        H828   1.111       .  S
C829        C830   1.404       .  A
C829        C834   1.404       .  A
C829        H836   1.084       .  S
C830        C831   1.417       .  A
C831        C832   1.399       .  A
C831        C838   1.510       .  S
C832        C833   1.398       .  A
C832        H837   1.085       .  S
C833        C834   1.410       .  A
C834        C835   1.506       .  S
C835        H839   1.111       .  S
C835        H840   1.110       .  S
C835        H841   1.110       .  S
C838        H842   1.109       .  S
C838        H843   1.111       .  S
C838        H844   1.111       .  S
C845        C846   1.399       .  A
C845        C850   1.397       .  A
C845        H852   1.085       .  S
C846        C847   1.409       .  A
C847        C848   1.403       .  A
C847        C854   1.506       .  S
C848        C849   1.406       .  A
C848        H853   1.084       .  S
C849        C850   1.419       .  A
C850        C851   1.510       .  S
C851        H855   1.111       .  S
C851        H856   1.110       .  S
C851        H857   1.110       .  S
C854        H858   1.110       .  S
C854        H859   1.109       .  S
C854        H860   1.111       .  S
C861        C862   1.399       .  A
C861        C866   1.401       .  A
C861        H868   1.085       .  S
C862        C863   1.412       .  A
C863        C864   1.410       .  A
C863        C870   1.505       .  S
C864        C865   1.406       .  A
C864        H869   1.084       .  S
C865        C866   1.420       .  A
C866        C867   1.511       .  S
C867        H871   1.111       .  S
C867        H872   1.109       .  S
C867        H873   1.110       .  S
C870        H874   1.110       .  S
C870        H875   1.110       .  S
C870        H876   1.111       .  S
C877        C878   1.403       .  A
C877        C882   1.397       .  A
C877        H884   1.084       .  S
C878        C879   1.418       .  A
C879        C880   1.406       .  A
C879        C886   1.507       .  S
C880        C881   1.401       .  A
C880        H885   1.084       .  S
C881        C882   1.411       .  A
C882        C883   1.509       .  S
C883        H887   1.111       .  S
C883        H888   1.110       .  S
C883        H889   1.108       .  S
C886        H890   1.109       .  S
C886        H891   1.110       .  S
C886        H892   1.111       .  S
C893        C894   1.407       .  A
C893        C898   1.398       .  A
C893        H900   1.085       .  S
C894        C895   1.415       .  A
C895        C896   1.407       .  A
C895        C902   1.506       .  S
C896        C897   1.403       .  A
C896        H901   1.084       .  S
C897        C898   1.410       .  A
C898        C899   1.509       .  S
C899        H903   1.110       .  S
C899        H904   1.108       .  S
C899        H905   1.110       .  S
C902        H906   1.111       .  S
C902        H907   1.110       .  S
C902        H908   1.111       .  S
C909        C910   1.411       .  A
C909        C914   1.399       .  A
C909        H916   1.084       .  S
C910        C911   1.421       .  A
C911        C912   1.410       .  A
C911        C918   1.507       .  S
C912        C913   1.404       .  A
C912        H917   1.084       .  S
C913        C914   1.410       .  A
C914        C915   1.510       .  S
C915        H919   1.110       .  S
C915        H920   1.106       .  S
C915        H921   1.110       .  S
C918        H922   1.110       .  S
C918        H923   1.110       .  S
C918        H924   1.111       .  S
C925        C926   1.400       .  A
C925        C930   1.400       .  A
C925        H932   1.085       .  S
C926        C927   1.409       .  A
C927        C928   1.402       .  A
C927        C934   1.506       .  S
C928        C929   1.406       .  A
C928        H933   1.084       .  S
C929        C930   1.418       .  A
C930        C931   1.509       .  S
C931        H935   1.111       .  S
C931        H936   1.110       .  S
C931        H937   1.110       .  S
C934        H938   1.110       .  S
C934        H939   1.110       .  S
C934        H940   1.111       .  S
C941        C942   1.408       .  A
C941        C946   1.405       .  A
C941        H948   1.083       .  S
C942        C943   1.430       .  A
C943        C944   1.402       .  A
C943        C950   1.511       .  S
C944        C945   1.395       .  A
C944        H949   1.085       .  S
C945        C946   1.412       .  A
C946        C947   1.508       .  S
C947        H951   1.111       .  S
C947        H952   1.108       .  S
C947        H953   1.110       .  S
C950        H954   1.110       .  S
C950        H955   1.110       .  S
C950        H956   1.111       .  S
C957        C958   1.407       .  A
C957        C962   1.404       .  A
C957        H964   1.084       .  S
C958        C959   1.418       .  A
C959        C960   1.397       .  A
C959        C966   1.510       .  S
C960        C961   1.401       .  A
C960        H965   1.085       .  S
C961        C962   1.413       .  A
C962        C963   1.508       .  S
C963        H967   1.110       .  S
C963        H968   1.107       .  S
C963        H969   1.110       .  S
C966        H970   1.110       .  S
C966        H971   1.110       .  S
C966        H972   1.111       .  S
C973        C974   1.403       .  A
C973        C978   1.397       .  A
C973        H980   1.084       .  S
C974        C975   1.416       .  A
C975        C976   1.405       .  A
C975        C982   1.506       .  S
C976        C977   1.401       .  A
C976        H981   1.084       .  S
C977        C978   1.411       .  A
C978        C979   1.510       .  S
C979        H983   1.111       .  S
C979        H984   1.108       .  S
C979        H985   1.111       .  S
C982        H986   1.110       .  S
C982        H987   1.110       .  S
C982        H988   1.111       .  S
C989        C990   1.405       .  A
C989        C994   1.405       .  A
C989        H996   1.084       .  S
C990        C991   1.421       .  A
C991        C992   1.400       .  A
C991        C998   1.510       .  S
C992        C993   1.399       .  A
C992        H997   1.085       .  S
C993        C994   1.412       .  A
C994        C995   1.507       .  S
C995        H999   1.111       .  S
C995       H1000   1.109       .  S
C995       H1001   1.111       .  S
C998       H1002   1.110       .  S
C998       H1003   1.110       .  S
C998       H1004   1.111       .  S
C1005      C1006   1.404       .  A
C1005      C1010   1.399       .  A
C1005      H1012   1.084       .  S
C1006      C1007   1.417       .  A
C1007      C1008   1.410       .  A
C1007      C1014   1.506       .  S
C1008      C1009   1.404       .  A
C1008      H1013   1.084       .  S
C1009      C1010   1.410       .  A
C1010      C1011   1.509       .  S
C1011      H1015   1.111       .  S
C1011      H1016   1.109       .  S
C1011      H1017   1.111       .  S
C1014      H1018   1.110       .  S
C1014      H1019   1.110       .  S
C1014      H1020   1.111       .  S
C1021      C1022   1.409       .  A
C1021      C1026   1.404       .  A
C1021      H1028   1.084       .  S
C1022      C1023   1.427       .  A
C1023      C1024   1.402       .  A
C1023      C1030   1.510       .  S
C1024      C1025   1.396       .  A
C1024      H1029   1.085       .  S
C1025      C1026   1.412       .  A
C1026      C1027   1.507       .  S
C1027      H1031   1.111       .  S
C1027      H1032   1.110       .  S
C1027      H1033   1.109       .  S
C1030      H1034   1.110       .  S
C1030      H1035   1.110       .  S
C1030      H1036   1.111       .  S
C1037      C1038   1.408       .  A
C1037      C1042   1.405       .  A
C1037      H1044   1.083       .  S
C1038      C1039   1.429       .  A
C1039      C1040   1.402       .  A
C1039      C1046   1.511       .  S
C1040      C1041   1.396       .  A
C1040      H1045   1.085       .  S
C1041      C1042   1.410       .  A
C1042      C1043   1.507       .  S
C1043      H1047   1.111       .  S
C1043      H1048   1.109       .  S
C1043      H1049   1.110       .  S
C1046      H1050   1.110       .  S
C1046      H1051   1.110       .  S
C1046      H1052   1.111       .  S
C1053      C1054   1.400       .  A
C1053      C1058   1.400       .  A
C1053      H1060   1.085       .  S
C1054      C1055   1.411       .  A
C1055      C1056   1.403       .  A
C1055      C1062   1.508       .  S
C1056      C1057   1.406       .  A
C1056      H1061   1.084       .  S
C1057      C1058   1.419       .  A
C1058      C1059   1.510       .  S
C1059      H1063   1.111       .  S
C1059      H1064   1.111       .  S
C1059      H1065   1.109       .  S
C1062      H1066   1.109       .  S
C1062      H1067   1.110       .  S
C1062      H1068   1.111       .  S
C1069      C1070   1.407       .  A
C1069      C1074   1.409       .  A
C1069      H1076   1.084       .  S
C1070      C1071   1.420       .  A
C1071      C1072   1.401       .  A
C1071      C1078   1.509       .  S
C1072      C1073   1.397       .  A
C1072      H1077   1.085       .  S
C1073      C1074   1.411       .  A
C1074      C1075   1.505       .  S
C1075      H1079   1.111       .  S
C1075      H1080   1.111       .  S
C1075      H1081   1.110       .  S
C1078      H1082   1.111       .  S
C1078      H1083   1.109       .  S
C1078      H1084   1.111       .  S
C1085      C1086   1.409       .  A
C1085      C1090   1.407       .  A
C1085      H1092   1.083       .  S
C1086      C1087   1.430       .  A
C1087      C1088   1.402       .  A
C1087      C1094   1.511       .  S
C1088      C1089   1.395       .  A
C1088      H1093   1.085       .  S
C1089      C1090   1.411       .  A
C1090      C1091   1.506       .  S
C1091      H1095   1.111       .  S
C1091      H1096   1.109       .  S
C1091      H1097   1.111       .  S
C1094      H1098   1.110       .  S
C1094      H1099   1.110       .  S
C1094      H1100   1.111       .  S
C1101      C1102   1.407       .  A
C1101      C1106   1.408       .  A
C1101      H1108   1.084       .  S
C1102      C1103   1.428       .  A
C1103      C1104   1.402       .  A
C1103      C1110   1.512       .  S
C1104      C1105   1.395       .  A
C1104      H1109   1.085       .  S
C1105      C1106   1.411       .  A
C1106      C1107   1.505       .  S
C1107      H1111   1.111       .  S
C1107      H1112   1.110       .  S
C1107      H1113   1.111       .  S
C1110      H1114   1.111       .  S
C1110      H1115   1.110       .  S
C1110      H1116   1.111       .  S
C1117      C1118   1.400       .  A
C1117      C1122   1.401       .  A
C1117      H1124   1.084       .  S
C1118      C1119   1.408       .  A
C1119      C1120   1.398       .  A
C1119      C1126   1.507       .  S
C1120      C1121   1.403       .  A
C1120      H1125   1.085       .  S
C1121      C1122   1.411       .  A
C1122      C1123   1.506       .  S
C1123      H1127   1.111       .  S
C1123      H1128   1.110       .  S
C1123      H1129   1.109       .  S
C1126      H1130   1.109       .  S
C1126      H1131   1.111       .  S
C1126      H1132   1.111       .  S
C1133      C1134   1.413       .  A
C1133      C1138   1.401       .  A
C1133      H1140   1.083       .  S
C1134      C1135   1.420       .  A
C1135      C1136   1.409       .  A
C1135      C1142   1.507       .  S
C1136      C1137   1.405       .  A
C1136      H1141   1.084       .  S
C1137      C1138   1.409       .  A
C1138      C1139   1.509       .  S
C1139      H1143   1.111       .  S
C1139      H1144   1.109       .  S
C1139      H1145   1.111       .  S
C1142      H1146   1.110       .  S
C1142      H1147   1.110       .  S
C1142      H1148   1.111       .  S
C1149      C1150   1.404       .  A
C1149      C1154   1.398       .  A
C1149      H1156   1.085       .  S
C1150      C1151   1.415       .  A
C1151      C1152   1.408       .  A
C1151      C1158   1.506       .  S
C1152      C1153   1.404       .  A
C1152      H1157   1.084       .  S
C1153      C1154   1.412       .  A
C1154      C1155   1.508       .  S
C1155      H1159   1.111       .  S
C1155      H1160   1.110       .  S
C1155      H1161   1.108       .  S
C1158      H1162   1.110       .  S
C1158      H1163   1.109       .  S
C1158      H1164   1.111       .  S
C1165      C1166   1.400       .  A
C1165      C1170   1.400       .  A
C1165      H1172   1.085       .  S
C1166      C1167   1.414       .  A
C1167      C1168   1.404       .  A
C1167      C1174   1.507       .  S
C1168      C1169   1.403       .  A
C1168      H1173   1.084       .  S
C1169      C1170   1.418       .  A
C1170      C1171   1.510       .  S
C1171      H1175   1.111       .  S
C1171      H1176   1.111       .  S
C1171      H1177   1.109       .  S
C1174      H1178   1.107       .  S
C1174      H1179   1.110       .  S
C1174      H1180   1.110       .  S
C1181      C1182   1.415       .  A
C1181      C1186   1.402       .  A
C1181      H1188   1.083       .  S
C1182      C1183   1.421       .  A
C1183      C1184   1.409       .  A
C1183      C1190   1.506       .  S
C1184      C1185   1.404       .  A
C1184      H1189   1.084       .  S
C1185      C1186   1.406       .  A
C1186      C1187   1.508       .  S
C1187      H1191   1.111       .  S
C1187      H1192   1.109       .  S
C1187      H1193   1.111       .  S
C1190      H1194   1.110       .  S
C1190      H1195   1.110       .  S
C1190      H1196   1.111       .  S
C1197      C1198   1.409       .  A
C1197      C1202   1.411       .  A
C1197      H1204   1.083       .  S
C1198      C1199   1.430       .  A
C1199      C1200   1.401       .  A
C1199      C1206   1.508       .  S
C1200      C1201   1.395       .  A
C1200      H1205   1.085       .  S
C1201      C1202   1.416       .  A
C1202      C1203   1.508       .  S
C1203      H1207   1.111       .  S
C1203      H1208   1.107       .  S
C1203      H1209   1.110       .  S
C1206      H1210   1.110       .  S
C1206      H1211   1.106       .  S
C1206      H1212   1.111       .  S
C1213      C1214   1.407       .  A
C1213      C1218   1.406       .  A
C1213      H1220   1.084       .  S
C1214      C1215   1.420       .  A
C1215      C1216   1.404       .  A
C1215      C1222   1.509       .  S
C1216      C1217   1.403       .  A
C1216      H1221   1.085       .  S
C1217      C1218   1.417       .  A
C1218      C1219   1.508       .  S
C1219      H1223   1.110       .  S
C1219      H1224   1.104       .  S
C1219      H1225   1.110       .  S
C1222      H1226   1.110       .  S
C1222      H1227   1.110       .  S
C1222      H1228   1.111       .  S
C1229      C1230   1.408       .  A
C1229      C1234   1.408       .  A
C1229      H1236   1.083       .  S
C1230      C1231   1.432       .  A
C1231      C1232   1.404       .  A
C1231      C1238   1.510       .  S
C1232      C1233   1.395       .  A
C1232      H1237   1.085       .  S
C1233      C1234   1.413       .  A
C1234      C1235   1.508       .  S
C1235      H1239   1.111       .  S
C1235      H1240   1.108       .  S
C1235      H1241   1.111       .  S
C1238      H1242   1.110       .  S
C1238      H1243   1.107       .  S
C1238      H1244   1.111       .  S
C1245      C1246   1.405       .  A
C1245      C1250   1.405       .  A
C1245      H1252   1.084       .  S
C1246      C1247   1.417       .  A
C1247      C1248   1.398       .  A
C1247      C1254   1.508       .  S
C1248      C1249   1.400       .  A
C1248      H1253   1.085       .  S
C1249      C1250   1.415       .  A
C1250      C1251   1.508       .  S
C1251      H1255   1.110       .  S
C1251      H1256   1.107       .  S
C1251      H1257   1.111       .  S
C1254      H1258   1.110       .  S
C1254      H1259   1.109       .  S
C1254      H1260   1.111       .  S
C1261      C1262   1.406       .  A
C1261      C1266   1.407       .  A
C1261      H1268   1.084       .  S
C1262      C1263   1.419       .  A
C1263      C1264   1.399       .  A
C1263      C1270   1.506       .  S
C1264      C1265   1.398       .  A
C1264      H1269   1.085       .  S
C1265      C1266   1.411       .  A
C1266      C1267   1.506       .  S
C1267      H1271   1.111       .  S
C1267      H1272   1.109       .  S
C1267      H1273   1.110       .  S
C1270      H1274   1.111       .  S
C1270      H1275   1.109       .  S
C1270      H1276   1.111       .  S
C1277      C1278   1.404       .  A
C1277      C1282   1.408       .  A
C1277      H1284   1.084       .  S
C1278      C1279   1.419       .  A
C1279      C1280   1.402       .  A
C1279      C1286   1.510       .  S
C1280      C1281   1.400       .  A
C1280      H1285   1.085       .  S
C1281      C1282   1.415       .  A
C1282      C1283   1.507       .  S
C1283      H1287   1.110       .  S
C1283      H1288   1.108       .  S
C1283      H1289   1.110       .  S
C1286      H1290   1.109       .  S
C1286      H1291   1.110       .  S
C1286      H1292   1.111       .  S
C1293      C1294   1.406       .  A
C1293      C1298   1.409       .  A
C1293      H1300   1.084       .  S
C1294      C1295   1.422       .  A
C1295      C1296   1.404       .  A
C1295      C1302   1.510       .  S
C1296      C1297   1.398       .  A
C1296      H1301   1.084       .  S
C1297      C1298   1.411       .  A
C1298      C1299   1.505       .  S
C1299      H1303   1.111       .  S
C1299      H1304   1.110       .  S
C1299      H1305   1.110       .  S
C1302      H1306   1.109       .  S
C1302      H1307   1.111       .  S
C1302      H1308   1.111       .  S
C1309      C1310   1.403       .  A
C1309      C1314   1.409       .  A
C1309      H1316   1.084       .  S
C1310      C1311   1.413       .  A
C1311      C1312   1.402       .  A
C1311      C1318   1.509       .  S
C1312      C1313   1.404       .  A
C1312      H1317   1.084       .  S
C1313      C1314   1.416       .  A
C1314      C1315   1.507       .  S
C1315      H1319   1.111       .  S
C1315      H1320   1.109       .  S
C1315      H1321   1.110       .  S
C1318      H1322   1.109       .  S
C1318      H1323   1.111       .  S
C1318      H1324   1.111       .  S
C1325      C1326   1.403       .  A
C1325      C1330   1.399       .  A
C1325      H1332   1.084       .  S
C1326      C1327   1.415       .  A
C1327      C1328   1.407       .  A
C1327      C1334   1.506       .  S
C1328      C1329   1.403       .  A
C1328      H1333   1.084       .  S
C1329      C1330   1.409       .  A
C1330      C1331   1.508       .  S
C1331      H1335   1.111       .  S
C1331      H1336   1.110       .  S
C1331      H1337   1.110       .  S
C1334      H1338   1.109       .  S
C1334      H1339   1.110       .  S
C1334      H1340   1.111       .  S
C1341      C1342   1.402       .  A
C1341      C1346   1.407       .  A
C1341      H1348   1.084       .  S
C1342      C1343   1.408       .  A
C1343      C1344   1.397       .  A
C1343      C1350   1.508       .  S
C1344      C1345   1.404       .  A
C1344      H1349   1.084       .  S
C1345      C1346   1.417       .  A
C1346      C1347   1.506       .  S
C1347      H1351   1.111       .  S
C1347      H1352   1.110       .  S
C1347      H1353   1.110       .  S
C1350      H1354   1.111       .  S
C1350      H1355   1.108       .  S
C1350      H1356   1.111       .  S
C1357      C1358   1.405       .  A
C1357      C1362   1.396       .  A
C1357      H1364   1.085       .  S
C1358      C1359   1.413       .  A
C1359      C1360   1.406       .  A
C1359      C1366   1.506       .  S
C1360      C1361   1.404       .  A
C1360      H1365   1.084       .  S
C1361      C1362   1.409       .  A
C1362      C1363   1.508       .  S
C1363      H1367   1.111       .  S
C1363      H1368   1.108       .  S
C1363      H1369   1.110       .  S
C1366      H1370   1.110       .  S
C1366      H1371   1.110       .  S
C1366      H1372   1.111       .  S
