geometry optimzed in LAMMPS
_audit_creation_date              2020-11-30 
_audit_creation_method            'lammps2cif' 
_symmetry_space_group_name_H-M    'P1' 
_symmetry_Int_Tables_number       1 
_symmetry_cell_setting            triclinic 
loop_ 
_symmetry_equiv_pos_as_xyz 
  x,y,z 
_cell_length_a                    38.11111545990404 
_cell_length_b                    36.90044473731778 
_cell_length_c                    37.48158975431639 
_cell_angle_alpha                 91.06129169116734 
_cell_angle_beta                  92.48682138181385 
_cell_angle_gamma                 94.68993850810882 
loop_ 
_atom_site_label 
_atom_site_type_symbol 
_atom_site_fract_x 
_atom_site_fract_y 
_atom_site_fract_z 
_atom_site_charge 
C1          C  0.50593658  0.13081569  0.22880183    -0.03280
O2          O  0.46331624  0.06658364  0.38846976    -0.87280
O3          O  0.11925386  0.46744337  0.45922480    -0.87440
O4          O  0.08303315  0.08891103  0.42541372    -0.89110
O5          O  0.04836800  0.48352649  0.36201864    -0.87870
O6          O  0.00939587  0.43385654  0.37145741    -0.87460
O7          O  0.07935513  0.10198635  0.48456704    -0.88830
O8          O  0.11103626  0.50580151  0.41256897    -0.87310
O9          O  0.01958695  0.05704817  0.37307854    -0.86890
Zr10       Zr  0.05254069  0.02517640  0.41579811     2.84310
O11         O  0.04884904  0.46582773  0.43772330    -1.08870
O12         O  0.01723276  0.06006327  0.44989354    -1.09600
C13         C  0.98941952  0.06962147  0.36764300     1.05830
C14         C  0.12910606  0.48360518  0.43020792     1.05770
C15         C  0.08870311  0.11054192  0.45359452     1.08750
C16         C  0.03131829  0.45257279  0.35226136     1.06530
H17         H  0.09658709  0.03541694  0.47531890     0.32090
O18         O  0.07234115  0.02561500  0.47503883    -1.29820
H19         H  0.48814142  0.49807896  0.38654334     0.31770
O20         O  0.99465133  0.49947127  0.41170611    -1.31500
O21         O  0.06010240  0.44654288  0.06003297    -0.87270
O22         O  0.40164688  0.02741995  0.47853363    -0.88770
O23         O  0.09860698  0.05839098  0.03780492    -0.87350
O24         O  0.03120750  0.38960908  0.43924895    -0.87400
O25         O  0.42749559  0.44387918  0.41185848    -0.87110
O26         O  0.00372763  0.11366615  0.00347591    -0.86920
O27         O  0.47907574  0.01955019  0.08038098    -0.87290
O28         O  0.44365329  0.41434474  0.01711986    -0.86750
O29         O  0.02226257  0.06465103  0.07015890    -0.87810
O30         O  0.45670319  0.39421000  0.46153789    -0.86970
O31         O  0.11410663  0.50002880  0.03040359    -0.87370
O32         O  0.46049600  0.09864275  0.45979614    -0.87090
O33         O  0.43027544  0.50177619  0.39589904    -0.86740
O34         O  0.06346753  0.40412730  0.49064095    -0.87150
O35         O  0.00204497  0.45139291  0.07090123    -0.87450
O36         O  0.41186220  0.49211834  0.02710138    -0.88790
Zr37       Zr  0.06716737  0.46755108  0.49793153     2.83100
Zr38       Zr  0.45834386  0.03546821  0.44492177     2.83500
Zr39       Zr  0.03804376  0.06032716  0.00945178     2.84090
Zr40       Zr  0.99070046  0.43997391  0.43233153     2.83360
Zr41       Zr  0.47248542  0.47870768  0.02516403     2.84220
O42         O  0.45448209  0.47608448  0.46523135    -1.09360
O43         O  0.03181196  0.50228268  0.03137242    -1.08860
C44         C  0.03283286  0.44298206  0.07969018     1.05800
C45         C  0.39172255  0.01054742  0.00739345     1.08420
C46         C  0.12064474  0.03327733  0.04018200     1.05980
C47         C  0.05513021  0.38333988  0.46381844     1.06340
C48         C  0.41230483  0.47260653  0.40226146     1.05920
C49         C  0.47675150  0.12038492  0.48326512     1.05470
C50         C  0.99969420  0.04845256  0.09016693     1.05900
C51         C  0.44241699  0.38946848  0.99156013     1.05410
H52         H  0.46381272  0.05319847  0.01850395     0.32090
O53         O  0.47805987  0.03810108  0.00476245    -1.30460
H54         H  0.00714985  0.41926713  0.00336277     0.32110
O55         O  0.00874064  0.44297712  0.49292571    -1.31840
C56         C  0.26000475  0.00583246  0.08993125    -0.03280
O57         O  0.17596783  0.19088038  0.27525069    -0.87280
O58         O  0.25825876  0.28036285  0.11559532    -0.87440
O59         O  0.16240142  0.26488235  0.18920847    -0.89110
O60         O  0.21734312  0.16135372  0.16356919    -0.87870
O61         O  0.26813270  0.14053895  0.18768137    -0.87460
O62         O  0.17983601  0.31642123  0.22278361    -0.88830
O63         O  0.21123873  0.23985078  0.12581572    -0.87310
O64         O  0.16292202  0.19284190  0.21481420    -0.86890
Zr65       Zr  0.21181869  0.22466920  0.18810586     2.84310
O66         O  0.27057478  0.22391631  0.17454670    -1.08870
O67         O  0.21161589  0.25345893  0.24388360    -1.09600
C68         C  0.15507798  0.18510125  0.24688517     1.05830
C69         C  0.22825448  0.26231983  0.10570820     1.05770
C70         C  0.15706001  0.29621729  0.20361801     1.08750
C71         C  0.23959679  0.13658694  0.16875780     1.06530
H72         H  0.22574460  0.29878586  0.17041329     0.32090
O73         O  0.23844414  0.28456982  0.18718850    -1.29820
H74         H  0.22764136  0.16633371  0.23245500     0.31770
O75         O  0.23932170  0.19048702  0.23141840    -1.31500
O76         O  0.36092686  0.30808152  0.18447723    -0.87270
O77         O  0.27273792  0.22296094  0.34442981    -0.88770
O78         O  0.24774504  0.36311462  0.19996668    -0.87350
O79         O  0.32286526  0.18715247  0.15711308    -0.87400
O80         O  0.28890884  0.13845600  0.26023671    -0.87110
O81         O  0.21687589  0.31723392  0.30459971    -0.86920
O82         O  0.31964738  0.33465116  0.30111000    -0.87290
O83         O  0.37705820  0.23878678  0.27061173    -0.86750
O84         O  0.28574043  0.35802606  0.25818712    -0.87810
O85         O  0.35777537  0.18653587  0.23908408    -0.86970
O86         O  0.28939595  0.34736913  0.16136753    -0.87370
O87         O  0.20116277  0.25776915  0.31740931    -0.87090
O88         O  0.24957730  0.15589655  0.30016074    -0.86740
O89         O  0.32400472  0.24447893  0.13363504    -0.87150
O90         O  0.37289535  0.30414996  0.24471789    -0.87450
O91         O  0.32515302  0.25640930  0.33552666    -0.88790
Zr92       Zr  0.29737686  0.28369789  0.17242662     2.83100
Zr93       Zr  0.23766956  0.21833776  0.28723767     2.83500
Zr94       Zr  0.23916489  0.31268206  0.24347277     2.84090
Zr95       Zr  0.29839367  0.18952997  0.21781457     2.83360
Zr96       Zr  0.32504085  0.27404803  0.27298003     2.84220
O97         O  0.29710742  0.21532741  0.27465529    -1.09360
O98         O  0.29764572  0.30922903  0.22979067    -1.08860
C99         C  0.38174264  0.31248195  0.21325220     1.05800
C100        C  0.30334945  0.23816640  0.35529027     1.08420
C101        C  0.26851561  0.36990308  0.17364969     1.05980
C102        C  0.32865074  0.21059872  0.13205320     1.06340
C103        C  0.26912723  0.13230249  0.28733300     1.05920
C104        C  0.20613118  0.29166547  0.32596291     1.05470
C105        C  0.30246360  0.36061993  0.28818476     1.05900
C106        C  0.38191700  0.20838121  0.25452769     1.05410
H107        H  0.26861855  0.28787328  0.31028350     0.32090
O108        O  0.26675130  0.27711453  0.28659595    -1.30460
H109        H  0.34871210  0.24599570  0.20762689     0.32110
O110        O  0.32513723  0.24822974  0.21522067    -1.31840
C111        C  0.14992784  0.26562068  0.46155463    -0.03280
C112        C  0.02962819  0.37282364  0.21336825    -0.03280
C113        C  0.38166648  0.23505823  0.49379586    -0.03280
C114        C  0.26748695  0.48930364  0.36505063    -0.03280
C115        C  0.21771056  0.27501486  0.38773661    -0.09950
C116        C  0.20188394  0.29867761  0.36412478     0.06250
C117        C  0.17503185  0.31827673  0.37605049    -0.03710
C118        C  0.16087659  0.30996273  0.40880779    -0.08160
C119        C  0.17155387  0.28024223  0.42975414     0.05370
C120        C  0.20230983  0.26437295  0.41939392    -0.03190
Br121      Br  0.22218531  0.22468594  0.44378531    -0.02880
H122        H  0.23936833  0.26074207  0.37916243     0.09280
H123        H  0.13985863  0.32613215  0.41571156     0.07300
Br124      Br  0.15449029  0.35387574  0.34712172    -0.03310
C125        C  0.22735019  0.28065257  0.03946263    -0.09950
C126        C  0.21000129  0.26675659  0.06931276     0.06250
C127        C  0.17313191  0.25851977  0.06443003    -0.03710
C128        C  0.15625602  0.25925720  0.03069428    -0.08160
C129        C  0.17352494  0.26761456  0.99886791     0.05370
C130        C  0.20911622  0.28389649  0.00568445    -0.03190
Br131      Br  0.23100837  0.32136498  0.47701084    -0.02880
H132        H  0.25457480  0.29149412  0.04302262     0.09280
H133        H  0.12824320  0.25798188  0.03117712     0.07300
Br134      Br  0.14155246  0.25091144  0.10293255    -0.03310
C135        C  0.35609250  0.20439396  0.43318937    -0.09950
C136        C  0.35353264  0.23099571  0.46098352     0.06250
C137        C  0.32841855  0.25703082  0.45397487    -0.03710
C138        C  0.31083370  0.25823304  0.42005399    -0.08160
C139        C  0.31590060  0.23284992  0.39275342     0.05370
C140        C  0.33755534  0.20497557  0.40026025    -0.03190
Br141      Br  0.34552644  0.16874888  0.36462223    -0.02880
H142        H  0.37465462  0.18400522  0.43481855     0.09280
H143        H  0.29413436  0.28003278  0.41460948     0.07300
Br144      Br  0.31855664  0.29392052  0.48801326    -0.03310
C145        C  0.37718046  0.20822319  0.09363670    -0.09950
C146        C  0.34124747  0.20055348  0.09737201     0.06250
C147        C  0.31818854  0.20354717  0.06732825    -0.03710
C148        C  0.33072465  0.21663363  0.03511525    -0.08160
C149        C  0.36688757  0.22597301  0.03114723     0.05370
C150        C  0.39016144  0.22169845  0.06186772    -0.03190
Br151      Br  0.44012064  0.23573963  0.06485747    -0.02880
H152        H  0.39494569  0.20793916  0.11702925     0.09280
H153        H  0.31186892  0.21813169  0.01296355     0.07300
Br154      Br  0.26843390  0.19330710  0.07005062    -0.03310
C155        C  0.28138057  0.45612670  0.30655165    -0.09950
C156        C  0.26673561  0.45406105  0.34022493     0.06250
C157        C  0.25888794  0.41763408  0.35277979    -0.03710
C158        C  0.27493344  0.38852848  0.33787872    -0.08160
C159        C  0.29626394  0.39332402  0.30886014     0.05370
C160        C  0.29824699  0.42729934  0.29242646    -0.03190
Br161      Br  0.32470176  0.43613787  0.25096294    -0.02880
H162        H  0.28127034  0.48045754  0.29127982     0.09280
H163        H  0.26940397  0.36145231  0.34811799     0.07300
Br164      Br  0.22918621  0.40316586  0.39152212    -0.03310
C165        C  0.24141737  0.05022359  0.34496895    -0.09950
C166        C  0.26907626  0.02658444  0.34274472     0.06250
C167        C  0.29786168  0.04049715  0.32144950    -0.03710
C168        C  0.29679828  0.07389798  0.30337528    -0.08160
C169        C  0.26846714  0.09582537  0.30552053     0.05370
C170        C  0.24030328  0.08285902  0.32646199    -0.03190
Br171      Br  0.19764145  0.10703118  0.33064728    -0.02880
H172        H  0.21971524  0.04461502  0.36197214     0.09280
H173        H  0.31908916  0.08333043  0.28806478     0.07300
Br174      Br  0.34175421  0.01850671  0.31621227    -0.03310
C175        C  0.44063614  0.31623612  0.18456540    -0.09950
C176        C  0.41965734  0.32604066  0.21244822     0.06250
C177        C  0.43690741  0.34331816  0.24330544    -0.03710
C178        C  0.47323774  0.35116823  0.24517296    -0.08160
C179        C  0.49374629  0.34821216  0.21500185     0.05370
C180        C  0.47712825  0.32710038  0.18523340    -0.03190
Br181      Br  0.50034106  0.31522625  0.14238301    -0.02880
H182        H  0.42848614  0.30088013  0.16171300     0.09280
H183        H  0.48434670  0.36282858  0.27015887     0.07300
Br184      Br  0.41278290  0.36106031  0.28355650    -0.03310
C185        C  0.12325815  0.35006434  0.19732209    -0.09950
C186        C  0.12280581  0.31212551  0.19884660     0.06250
C187        C  0.08975363  0.29208727  0.19827415    -0.03710
C188        C  0.05931130  0.31052023  0.20474084    -0.08160
C189        C  0.06082248  0.34919992  0.20339705     0.05370
C190        C  0.09198519  0.36503481  0.18867932    -0.03190
Br191      Br  0.09087585  0.36671885  0.13719390    -0.02880
H192        H  0.14785644  0.36611769  0.19338561     0.09280
H193        H  0.03502439  0.29470928  0.20969989     0.07300
Br194      Br  0.08534256  0.24260320  0.18233354    -0.03310
C195        C  0.29272184  0.46246969  0.13079538    -0.09950
C196        C  0.26131238  0.46895396  0.11116336     0.06250
C197        C  0.23414977  0.43909688  0.11028659    -0.03710
C198        C  0.23614947  0.41007640  0.13391204    -0.08160
C199        C  0.26684084  0.40493339  0.15409597     0.05370
C200        C  0.29636668  0.42999497  0.14961374    -0.03190
Br201      Br  0.34305785  0.41932855  0.16463797    -0.02880
H202        H  0.31538397  0.48208523  0.13004471     0.09280
H203        H  0.21438969  0.38921973  0.13408111     0.07300
Br204      Br  0.19406670  0.43102098  0.07688060    -0.03310
C205        C  0.26037862  0.04163085  0.15002116    -0.09950
C206        C  0.26320124  0.04201971  0.11279568     0.06250
C207        C  0.25850645  0.07616119  0.09565327    -0.03710
C208        C  0.24324096  0.10376106  0.11350608    -0.08160
C209        C  0.23698846  0.10163312  0.14952398     0.05370
C210        C  0.24615249  0.07033319  0.16795746    -0.03190
Br211      Br  0.23881629  0.06541252  0.21799467    -0.02880
H212        H  0.26525212  0.01758454  0.16485141     0.09280
H213        H  0.23911622  0.12868168  0.09982742     0.07300
Br214      Br  0.27045036  0.08862156  0.04754532    -0.03310
C215        C  0.05409884  0.42744756  0.17727033    -0.09950
C216        C  0.02606738  0.40106068  0.18360587     0.06250
C217        C  0.99663208  0.40063733  0.15979228    -0.03710
C218        C  0.00237299  0.40831696  0.12477432    -0.08160
C219        C  0.03366573  0.42814323  0.11542169     0.05370
C220        C  0.05771809  0.44144437  0.14299492    -0.03190
Br221      Br  0.09586949  0.47651040  0.13505124    -0.02880
H222        H  0.07490428  0.43406407  0.19750676     0.09280
H223        H  0.48029199  0.40301039  0.10569244     0.07300
Br224      Br  0.44933351  0.40520889  0.17445959    -0.03310
C225        C  0.01571650  0.42650504  0.25412729    -0.09950
C226        C  0.03678128  0.39665166  0.24912364     0.06250
C227        C  0.05807955  0.38782085  0.27955390    -0.03710
C228        C  0.05762335  0.40790634  0.31202693    -0.08160
C229        C  0.03623918  0.43683560  0.31604105     0.05370
C230        C  0.01501990  0.44577063  0.28663675    -0.03190
Br231      Br  0.48137488  0.48144914  0.29081757    -0.02880
H232        H  0.49743960  0.43373258  0.23315115     0.09280
H233        H  0.07291423  0.39963279  0.33507746     0.07300
Br234      Br  0.08574943  0.34690363  0.28192249    -0.03310
C235        C  0.20082588  0.47803109  0.36379180    -0.09950
C236        C  0.23220812  0.48549619  0.38522247     0.06250
C237        C  0.22820761  0.48887098  0.42279868    -0.03710
C238        C  0.19474425  0.48293735  0.43731141    -0.08160
C239        C  0.16399483  0.47794883  0.41537694     0.05370
C240        C  0.16758352  0.47503835  0.37814636    -0.03190
Br241      Br  0.12813664  0.46734939  0.34469116    -0.02880
H242        H  0.20220216  0.47575512  0.33503186     0.09280
H243        H  0.19250550  0.48546436  0.46591384     0.07300
Br244      Br  0.26461962  0.50710861  0.45625569    -0.03310
C245        C  0.36209947  0.51158535  0.40297756    -0.09950
C246        C  0.37369110  0.47603153  0.40245851     0.06250
C247        C  0.34811842  0.44692596  0.40492192    -0.03710
C248        C  0.31255941  0.45376853  0.40210112    -0.08160
C249        C  0.30155041  0.48769950  0.39026143     0.05370
C250        C  0.32656455  0.51770887  0.39767296    -0.03190
Br251      Br  0.31480875  0.56719247  0.40405944    -0.02880
H252        H  0.38080204  0.53523993  0.40645343     0.09280
H253        H  0.29408883  0.43144173  0.40730214     0.07300
Br254      Br  0.35932616  0.39743159  0.41009849    -0.03310
C255        C  0.16290618  0.02969170  0.08873462    -0.09950
C256        C  0.15705085  0.04045773  0.05404034     0.06250
C257        C  0.18407526  0.03787657  0.02990394    -0.03710
C258        C  0.21512355  0.02153930  0.03977763    -0.08160
C259        C  0.22147023  0.00988444  0.07485657     0.05370
C260        C  0.19311117  0.01314306  0.09913655    -0.03190
Br261      Br  0.19064256  0.99515729  0.14726362    -0.02880
H262        H  0.14196603  0.03108937  0.10714787     0.09280
H263        H  0.23553417  0.52100354  0.02091153     0.07300
Br264      Br  0.17941966  0.55890060  0.48372814    -0.03310
C265        C  0.32818151  0.48598464  0.01496472    -0.09950
C266        C  0.35577675  0.01338640  0.02201215     0.06250
C267        C  0.35259877  0.03642787  0.05169490    -0.03710
C268        C  0.32280605  0.03278004  0.07252820    -0.08160
C269        C  0.29266383  0.00788866  0.06407809     0.05370
C270        C  0.29726355  0.98298865  0.03534201    -0.03190
Br271      Br  0.26463752  0.44183040  0.02406233    -0.02880
H272        H  0.33123608  0.46569358  0.49431181     0.09280
H273        H  0.32423055  0.05002792  0.09620689     0.07300
Br274      Br  0.39026075  0.07175266  0.06730874    -0.03310
C275        C  0.42278669  0.14334350  0.99879927    -0.09950
C276        C  0.45756957  0.15207697  0.49043987     0.06250
C277        C  0.46835196  0.18771407  0.48116725    -0.03710
C278        C  0.44449940  0.21464289  0.48264266    -0.08160
C279        C  0.40854486  0.20579218  0.48963231     0.05370
C280        C  0.39800585  0.16832805  0.99592079    -0.03190
Br281      Br  0.35032974  0.14638393  0.99788939    -0.03260
H282        H  0.41393305  0.11533746  0.00408140     0.09280
H283        H  0.45458985  0.24221565  0.47811714     0.07300
Br284      Br  0.01368798  0.20008874  0.46320421    -0.03310
C285        C  0.39849685  0.29912906  0.02511668    -0.09950
C286        C  0.39885986  0.27553983  0.49434691     0.06250
C287        C  0.41214007  0.29197231  0.46314508    -0.03710
C288        C  0.42376438  0.32875528  0.46346782    -0.08160
C289        C  0.42507198  0.35144757  0.99446740     0.05370
C290        C  0.41228664  0.33578783  0.02573753    -0.03190
Br291      Br  0.91314883  0.36222027  0.07037753    -0.02880
H292        H  0.38705843  0.28984820  0.04944302     0.09280
H293        H  0.43269051  0.33932452  0.43838407     0.07300
Br294      Br  0.41609929  0.26738396  0.41781103    -0.03310
C295        C  0.12322263  0.16340309  0.42407993    -0.09950
C296        C  0.10484533  0.14924021  0.45296038     0.06250
C297        C  0.09885726  0.17425925  0.48110819    -0.03710
C298        C  0.10998181  0.21073261  0.47892279    -0.08160
C299        C  0.13338788  0.22481741  0.45393833     0.05370
C300        C  0.13662381  0.20052095  0.42355561    -0.03190
Br301      Br  0.14775174  0.21483105  0.37599468    -0.02880
H302        H  0.12591182  0.14586392  0.40102891     0.09280
H303        H  0.09715701  0.22863488  0.49589528     0.07300
Br304      Br  0.07469622  0.16390866  0.02476098    -0.03310
C305        C  0.06564112  0.31924257  0.44451814    -0.09950
C306        C  0.07659742  0.35153487  0.46325579     0.06250
C307        C  0.10955198  0.35366944  0.48273540    -0.03710
C308        C  0.12884767  0.32383977  0.48520835    -0.08160
C309        C  0.11939115  0.29119232  0.46595695     0.05370
C310        C  0.08713308  0.28987313  0.44421115    -0.03190
Br311      Br  0.07232586  0.25345790  0.40832851    -0.02880
H312        H  0.04118564  0.31755480  0.42849312     0.09280
H313        H  0.15406191  0.32850526  0.49943695     0.07300
Br314      Br  0.13447885  0.39745260  0.50324663    -0.03310
C315        C  0.00719150  0.10492214  0.12764180    -0.09950
C316        C  0.99836033  0.06710990  0.12606817     0.06250
C317        C  0.99353255  0.04940161  0.15866642    -0.03710
C318        C  0.49695887  0.06943904  0.19133740    -0.08160
C319        C  0.00312094  0.10798210  0.19277807     0.05370
C320        C  0.01028476  0.12497451  0.15977178    -0.03190
Br321      Br  0.01993451  0.17650861  0.15491900    -0.02880
H322        H  0.01150959  0.11958445  0.10321773     0.09280
H323        H  0.49507689  0.05423190  0.21558919     0.07300
Br324      Br  0.48444683  0.49788100  0.16055151    -0.03310
C325        C  0.46322243  0.07699829  0.30677373    -0.09950
C326        C  0.98720219  0.08907945  0.33452964     0.06250
C327        C  0.01716291  0.11111973  0.32699471    -0.03710
C328        C  0.02630163  0.11538822  0.29231776    -0.08160
C329        C  0.00162458  0.10728266  0.26310000     0.05370
C330        C  0.46898558  0.08762658  0.27153594    -0.03190
Br331      Br  0.42951233  0.07654799  0.23843664    -0.02880
H332        H  0.44008846  0.05937103  0.31250331     0.09280
H333        H  0.05157813  0.13013174  0.29025930     0.07300
Br334      Br  0.04744524  0.13568164  0.36388277    -0.03310
C335        C  0.42232502  0.18563949  0.21322030    -0.09950
C336        C  0.41746231  0.19814781  0.24792429     0.06250
C337        C  0.44278478  0.19296798  0.27468318    -0.03710
C338        C  0.47163940  0.17380741  0.26648382    -0.08160
C339        C  0.47577086  0.15740308  0.23203178     0.05370
C340        C  0.44804132  0.16236222  0.20577308    -0.03190
Br341      Br  0.43337672  0.13391383  0.16307632    -0.02880
H342        H  0.40228508  0.18973742  0.19252270     0.09280
H343        H  0.49089372  0.17125782  0.28804689     0.07300
Br344      Br  0.43799260  0.20915385  0.32299974    -0.03310
C345        C  0.07202570  0.12559090  0.22599646    -0.09950
C346        C  0.04500960  0.14958534  0.23089672     0.06250
C347        C  0.05670358  0.18532721  0.24495875    -0.03710
C348        C  0.09253578  0.19409588  0.25498714    -0.08160
C349        C  0.11825263  0.16988032  0.24949160     0.05370
C350        C  0.10764275  0.13552983  0.23447409    -0.03190
Br351      Br  0.14139850  0.10117917  0.22469557    -0.02880
H352        H  0.06533337  0.09782896  0.21680060     0.09280
H353        H  0.10099414  0.22156977  0.26426541     0.07300
Br354      Br  0.02934787  0.22678080  0.24836140    -0.03310
C355        C  0.50593658  0.13081568  0.72880183    -0.03280
O356        O  0.46331625  0.06658364  0.88846977    -0.87280
O357        O  0.11925387  0.46744338  0.95922480    -0.87440
O358        O  0.08303315  0.08891103  0.92541372    -0.89110
O359        O  0.04836802  0.48352648  0.86201863    -0.87870
O360        O  0.00939587  0.43385655  0.87145741    -0.87460
O361        O  0.07935515  0.10198634  0.98456704    -0.88830
O362        O  0.11103627  0.50580153  0.91256897    -0.87310
O363        O  0.01958695  0.05704816  0.87307854    -0.86890
Zr364      Zr  0.05254069  0.02517640  0.91579810     2.84310
O365        O  0.04884905  0.46582773  0.93772330    -1.08870
O366        O  0.01723277  0.06006327  0.94989354    -1.09600
C367        C  0.98941952  0.06962146  0.86764300     1.05830
C368        C  0.12910607  0.48360520  0.93020792     1.05770
C369        C  0.08870312  0.11054192  0.95359452     1.08750
C370        C  0.03131830  0.45257279  0.85226135     1.06530
H371        H  0.09658710  0.03541694  0.97531889     0.32090
O372        O  0.07234116  0.02561500  0.97503883    -1.29820
H373        H  0.48814143  0.49807896  0.88654334     0.31770
O374        O  0.99465134  0.49947127  0.91170611    -1.31500
O375        O  0.06010238  0.44654288  0.56003297    -0.87270
O376        O  0.40164689  0.02741995  0.97853364    -0.88770
O377        O  0.09860696  0.05839098  0.53780493    -0.87350
O378        O  0.03120751  0.38960908  0.93924895    -0.87400
O379        O  0.42749560  0.44387918  0.91185849    -0.87110
O380        O  0.00372762  0.11366615  0.50347591    -0.86920
O381        O  0.47907573  0.01955019  0.58038097    -0.87290
O382        O  0.44365327  0.41434473  0.51711985    -0.86750
O383        O  0.02226255  0.06465103  0.57015889    -0.87810
O384        O  0.45670321  0.39421000  0.96153790    -0.86970
O385        O  0.11410662  0.50002879  0.53040359    -0.87370
O386        O  0.46049601  0.09864275  0.95979615    -0.87090
O387        O  0.43027546  0.50177618  0.89589905    -0.86740
O388        O  0.06346755  0.40412731  0.99064095    -0.87150
O389        O  0.00204495  0.45139291  0.57090123    -0.87450
O390        O  0.41186219  0.49211834  0.52710137    -0.88790
Zr391      Zr  0.06716738  0.46755109  0.99793153     2.83100
Zr392      Zr  0.45834387  0.03546821  0.94492178     2.83500
Zr393      Zr  0.03804374  0.06032716  0.50945178     2.84090
Zr394      Zr  0.99070047  0.43997391  0.93233153     2.83360
Zr395      Zr  0.47248541  0.47870768  0.52516402     2.84220
O396        O  0.45448210  0.47608448  0.96523136    -1.09360
O397        O  0.03181195  0.50228268  0.53137242    -1.08860
C398        C  0.03283284  0.44298207  0.57969018     1.05800
C399        C  0.39172253  0.01054742  0.50739343     1.08420
C400        C  0.12064472  0.03327733  0.54018201     1.05980
C401        C  0.05513023  0.38333989  0.96381843     1.06340
C402        C  0.41230484  0.47260653  0.90226148     1.05920
C403        C  0.47675151  0.12038493  0.98326513     1.05470
C404        C  0.99969419  0.04845255  0.59016693     1.05900
C405        C  0.44241697  0.38946848  0.49156013     1.05410
H406        H  0.46381271  0.05319847  0.51850394     0.32090
O407        O  0.47805985  0.03810108  0.50476245    -1.30460
H408        H  0.00714983  0.41926713  0.50336276     0.32110
O409        O  0.00874066  0.44297712  0.99292571    -1.31840
C410        C  0.26000474  0.00583245  0.58993124    -0.03280
O411        O  0.17596783  0.19088037  0.77525069    -0.87280
O412        O  0.25825877  0.28036285  0.61559532    -0.87440
O413        O  0.16240143  0.26488235  0.68920845    -0.89110
O414        O  0.21734313  0.16135371  0.66356918    -0.87870
O415        O  0.26813271  0.14053894  0.68768137    -0.87460
O416        O  0.17983601  0.31642124  0.72278359    -0.88830
O417        O  0.21123874  0.23985078  0.62581571    -0.87310
O418        O  0.16292203  0.19284190  0.71481420    -0.86890
Zr419      Zr  0.21181869  0.22466919  0.68810586     2.84310
O420        O  0.27057479  0.22391631  0.67454670    -1.08870
O421        O  0.21161589  0.25345892  0.74388360    -1.09600
C422        C  0.15507798  0.18510124  0.74688517     1.05830
C423        C  0.22825449  0.26231983  0.60570820     1.05770
C424        C  0.15706002  0.29621729  0.70361798     1.08750
C425        C  0.23959679  0.13658693  0.66875779     1.06530
H426        H  0.22574461  0.29878586  0.67041329     0.32090
O427        O  0.23844415  0.28456981  0.68718850    -1.29820
H428        H  0.22764137  0.16633370  0.73245500     0.31770
O429        O  0.23932170  0.19048701  0.73141839    -1.31500
O430        O  0.36092688  0.30808150  0.68447723    -0.87270
O431        O  0.27273793  0.22296093  0.84442981    -0.88770
O432        O  0.24774504  0.36311461  0.69996668    -0.87350
O433        O  0.32286526  0.18715246  0.65711308    -0.87400
O434        O  0.28890884  0.13845599  0.76023671    -0.87110
O435        O  0.21687589  0.31723391  0.80459971    -0.86920
O436        O  0.31964738  0.33465116  0.80110999    -0.87290
O437        O  0.37705820  0.23878677  0.77061173    -0.86750
O438        O  0.28574038  0.35802609  0.75818715    -0.87810
O439        O  0.35777537  0.18653587  0.73908408    -0.86970
O440        O  0.28939596  0.34736913  0.66136753    -0.87370
O441        O  0.20116277  0.25776914  0.81740931    -0.87090
O442        O  0.24957731  0.15589654  0.80016074    -0.86740
O443        O  0.32400473  0.24447892  0.63363504    -0.87150
O444        O  0.37289536  0.30414994  0.74471790    -0.87450
O445        O  0.32515303  0.25640930  0.83552665    -0.88790
Zr446      Zr  0.29737687  0.28369788  0.67242662     2.83100
Zr447      Zr  0.23766956  0.21833776  0.78723767     2.83500
Zr448      Zr  0.23916489  0.31268205  0.74347276     2.84090
Zr449      Zr  0.29839367  0.18952996  0.71781457     2.83360
Zr450      Zr  0.32504085  0.27404802  0.77298003     2.84220
O451        O  0.29710742  0.21532740  0.77465529    -1.09360
O452        O  0.29764572  0.30922903  0.72979067    -1.08860
C453        C  0.38174265  0.31248192  0.71325221     1.05800
C454        C  0.30334945  0.23816640  0.85529027     1.08420
C455        C  0.26851562  0.36990307  0.67364969     1.05980
C456        C  0.32865074  0.21059871  0.63205320     1.06340
C457        C  0.26912724  0.13230249  0.78733300     1.05920
C458        C  0.20613118  0.29166546  0.82596291     1.05470
C459        C  0.30246359  0.36061994  0.78818477     1.05900
C460        C  0.38191700  0.20838120  0.75452769     1.05410
H461        H  0.26861855  0.28787328  0.81028350     0.32090
O462        O  0.26675130  0.27711452  0.78659595    -1.30460
H463        H  0.34871211  0.24599569  0.70762689     0.32110
O464        O  0.32513723  0.24822974  0.71522067    -1.31840
C465        C  0.14992785  0.26562067  0.96155463    -0.03280
C466        C  0.02962820  0.37282363  0.71336824    -0.03280
C467        C  0.38166648  0.23505824  0.99379586    -0.03280
C468        C  0.26748697  0.48930366  0.86505064    -0.03280
C469        C  0.21771056  0.27501484  0.88773661    -0.09950
C470        C  0.20188395  0.29867759  0.86412479     0.06250
C471        C  0.17503187  0.31827673  0.87605049    -0.03710
C472        C  0.16087661  0.30996273  0.90880780    -0.08160
C473        C  0.17155388  0.28024222  0.92975414     0.05370
C474        C  0.20230983  0.26437294  0.91939392    -0.03190
Br475      Br  0.22218530  0.22468592  0.94378531    -0.02880
H476        H  0.23936833  0.26074204  0.87916243     0.09280
H477        H  0.13985865  0.32613215  0.91571157     0.07300
Br478      Br  0.15449033  0.35387576  0.84712175    -0.03310
C479        C  0.22735019  0.28065258  0.53946263    -0.09950
C480        C  0.21000130  0.26675659  0.56931276     0.06250
C481        C  0.17313191  0.25851975  0.56443003    -0.03710
C482        C  0.15625602  0.25925718  0.53069428    -0.08160
C483        C  0.17352494  0.26761456  0.49886790     0.05370
C484        C  0.20911622  0.28389650  0.50568445    -0.03190
Br485      Br  0.23100838  0.32136496  0.97701084    -0.02880
H486        H  0.25457480  0.29149414  0.54302262     0.09280
H487        H  0.12824321  0.25798184  0.53117712     0.07300
Br488      Br  0.14155246  0.25091138  0.60293254    -0.03310
C489        C  0.35609252  0.20439397  0.93318937    -0.09950
C490        C  0.35353265  0.23099572  0.96098352     0.06250
C491        C  0.32841856  0.25703082  0.95397487    -0.03710
C492        C  0.31083371  0.25823304  0.92005399    -0.08160
C493        C  0.31590061  0.23284992  0.89275342     0.05370
C494        C  0.33755535  0.20497558  0.90026025    -0.03190
Br495      Br  0.34552645  0.16874888  0.86462223    -0.02880
H496        H  0.37465464  0.18400522  0.93481855     0.09280
H497        H  0.29413437  0.28003278  0.91460948     0.07300
Br498      Br  0.31855665  0.29392053  0.98801326    -0.03310
C499        C  0.37718046  0.20822318  0.59363670    -0.09950
C500        C  0.34124747  0.20055347  0.59737201     0.06250
C501        C  0.31818854  0.20354716  0.56732826    -0.03710
C502        C  0.33072464  0.21663362  0.53511526    -0.08160
C503        C  0.36688757  0.22597300  0.53114723     0.05370
C504        C  0.39016144  0.22169845  0.56186772    -0.03190
Br505      Br  0.44012063  0.23573963  0.56485746    -0.02880
H506        H  0.39494570  0.20793916  0.61702924     0.09280
H507        H  0.31186892  0.21813168  0.51296355     0.07300
Br508      Br  0.26843390  0.19330709  0.57005063    -0.03310
C509        C  0.28138062  0.45612671  0.80655167    -0.09950
C510        C  0.26673564  0.45406106  0.84022495     0.06250
C511        C  0.25888796  0.41763410  0.85277981    -0.03710
C512        C  0.27493346  0.38852850  0.83787874    -0.08160
C513        C  0.29626397  0.39332403  0.80886016     0.05370
C514        C  0.29824703  0.42729935  0.79242649    -0.03190
Br515      Br  0.32470181  0.43613787  0.75096297    -0.02880
H516        H  0.28127038  0.48045755  0.79127984     0.09280
H517        H  0.26940398  0.36145233  0.84811801     0.07300
Br518      Br  0.22918623  0.40316588  0.89152213    -0.03310
C519        C  0.24141739  0.05022359  0.84496896    -0.09950
C520        C  0.26907627  0.02658444  0.84274472     0.06250
C521        C  0.29786169  0.04049715  0.82144950    -0.03710
C522        C  0.29679829  0.07389797  0.80337528    -0.08160
C523        C  0.26846715  0.09582537  0.80552053     0.05370
C524        C  0.24030330  0.08285903  0.82646200    -0.03190
Br525      Br  0.19764147  0.10703119  0.83064730    -0.02880
H526        H  0.21971526  0.04461503  0.86197216     0.09280
H527        H  0.31908917  0.08333043  0.78806478     0.07300
Br528      Br  0.34175423  0.01850670  0.81621227    -0.03310
C529        C  0.44063615  0.31623611  0.68456538    -0.09950
C530        C  0.41965737  0.32604061  0.71244824     0.06250
C531        C  0.43690746  0.34331806  0.74330547    -0.03710
C532        C  0.47323779  0.35116813  0.74517297    -0.08160
C533        C  0.49374631  0.34821213  0.71500184     0.05370
C534        C  0.47712826  0.32710037  0.68523337    -0.03190
Br535      Br  0.50034107  0.31522627  0.64238298    -0.02880
H536        H  0.42848614  0.30088015  0.66171298     0.09280
H537        H  0.48434677  0.36282843  0.77015889     0.07300
Br538      Br  0.41278299  0.36106013  0.78355659    -0.03310
C539        C  0.12325815  0.35006434  0.69732200    -0.09950
C540        C  0.12280582  0.31212551  0.69884655     0.06250
C541        C  0.08975364  0.29208726  0.69827415    -0.03710
C542        C  0.05931132  0.31052022  0.70474084    -0.08160
C543        C  0.06082249  0.34919991  0.70339703     0.05370
C544        C  0.09198518  0.36503480  0.68867926    -0.03190
Br545      Br  0.09087579  0.36671883  0.63719384    -0.02880
H546        H  0.14785644  0.36611767  0.69338549     0.09280
H547        H  0.03502441  0.29470928  0.70969991     0.07300
Br548      Br  0.08534257  0.24260319  0.68233355    -0.03310
C549        C  0.29272184  0.46246968  0.63079538    -0.09950
C550        C  0.26131237  0.46895396  0.61116336     0.06250
C551        C  0.23414977  0.43909687  0.61028659    -0.03710
C552        C  0.23614947  0.41007639  0.63391204    -0.08160
C553        C  0.26684084  0.40493339  0.65409597     0.05370
C554        C  0.29636668  0.42999497  0.64961374    -0.03190
Br555      Br  0.34305785  0.41932856  0.66463798    -0.02880
H556        H  0.31538397  0.48208523  0.63004471     0.09280
H557        H  0.21438969  0.38921972  0.63408111     0.07300
Br558      Br  0.19406669  0.43102097  0.57688061    -0.03310
C559        C  0.26037862  0.04163085  0.65002115    -0.09950
C560        C  0.26320124  0.04201971  0.61279567     0.06250
C561        C  0.25850644  0.07616118  0.59565327    -0.03710
C562        C  0.24324096  0.10376106  0.61350608    -0.08160
C563        C  0.23698846  0.10163311  0.64952398     0.05370
C564        C  0.24615249  0.07033319  0.66795746    -0.03190
Br565      Br  0.23881630  0.06541251  0.71799467    -0.02880
H566        H  0.26525212  0.01758453  0.66485140     0.09280
H567        H  0.23911622  0.12868167  0.59982741     0.07300
Br568      Br  0.27045035  0.08862156  0.54754531    -0.03310
C569        C  0.05409883  0.42744756  0.67727034    -0.09950
C570        C  0.02606738  0.40106068  0.68360588     0.06250
C571        C  0.99663206  0.40063734  0.65979230    -0.03710
C572        C  0.00237297  0.40831698  0.62477433    -0.08160
C573        C  0.03366571  0.42814324  0.61542169     0.05370
C574        C  0.05771808  0.44144437  0.64299493    -0.03190
Br575      Br  0.09586949  0.47651038  0.63505123    -0.02880
H576        H  0.07490428  0.43406406  0.69750676     0.09280
H577        H  0.48029195  0.40301043  0.60569247     0.07300
Br578      Br  0.44933349  0.40520887  0.67445962    -0.03310
C579        C  0.01571642  0.42650497  0.75412731    -0.09950
C580        C  0.03678127  0.39665165  0.74912364     0.06250
C581        C  0.05807963  0.38782093  0.77955385    -0.03710
C582        C  0.05762343  0.40790641  0.81202689    -0.08160
C583        C  0.03623918  0.43683560  0.81604104     0.05370
C584        C  0.01501982  0.44577056  0.78663677    -0.03190
Br585      Br  0.48137464  0.48144891  0.79081766    -0.02880
H586        H  0.49743943  0.43373242  0.73315121     0.09280
H587        H  0.07291437  0.39963291  0.83507740     0.07300
Br588      Br  0.08574967  0.34690382  0.78192240    -0.03310
C589        C  0.20082591  0.47803111  0.86379181    -0.09950
C590        C  0.23220814  0.48549620  0.88522249     0.06250
C591        C  0.22820763  0.48887099  0.92279869    -0.03710
C592        C  0.19474426  0.48293736  0.93731141    -0.08160
C593        C  0.16399485  0.47794886  0.91537694     0.05370
C594        C  0.16758354  0.47503838  0.87814636    -0.03190
Br595      Br  0.12813667  0.46734946  0.84469115    -0.02880
H596        H  0.20220219  0.47575515  0.83503186     0.09280
H597        H  0.19250551  0.48546437  0.96591385     0.07300
Br598      Br  0.26461963  0.50710863  0.95625570    -0.03310
C599        C  0.36209949  0.51158536  0.90297757    -0.09950
C600        C  0.37369112  0.47603154  0.90245853     0.06250
C601        C  0.34811843  0.44692597  0.90492195    -0.03710
C602        C  0.31255942  0.45376854  0.90210115    -0.08160
C603        C  0.30155043  0.48769951  0.89026145     0.05370
C604        C  0.32656457  0.51770888  0.89767298    -0.03190
Br605      Br  0.31480878  0.56719249  0.90405945    -0.02880
H606        H  0.38080207  0.53523994  0.90645344     0.09280
H607        H  0.29408883  0.43144175  0.90730217     0.07300
Br608      Br  0.35932616  0.39743160  0.91009854    -0.03310
C609        C  0.16290617  0.02969170  0.58873463    -0.09950
C610        C  0.15705083  0.04045773  0.55404034     0.06250
C611        C  0.18407525  0.03787658  0.52990394    -0.03710
C612        C  0.21512354  0.02153930  0.53977763    -0.08160
C613        C  0.22147022  0.00988443  0.57485656     0.05370
C614        C  0.19311116  0.01314305  0.59913655    -0.03190
Br615      Br  0.19064256  0.99515727  0.64726362    -0.02880
H616        H  0.14196603  0.03108936  0.60714788     0.09280
H617        H  0.23553415  0.52100352  0.52091152     0.07300
Br618      Br  0.17941967  0.55890061  0.98372814    -0.03310
C619        C  0.32818150  0.48598463  0.51496472    -0.09950
C620        C  0.35577673  0.01338640  0.52201213     0.06250
C621        C  0.35259876  0.03642786  0.55169489    -0.03710
C622        C  0.32280604  0.03278003  0.57252819    -0.08160
C623        C  0.29266382  0.00788866  0.56407808     0.05370
C624        C  0.29726353  0.98298866  0.53534198    -0.03190
Br625      Br  0.26463751  0.44183039  0.52406233    -0.02880
H626        H  0.33123610  0.46569358  0.99431182     0.09280
H627        H  0.32423055  0.05002790  0.59620689     0.07300
Br628      Br  0.39026074  0.07175265  0.56730873    -0.03310
C629        C  0.42278669  0.14334350  0.49879927    -0.09950
C630        C  0.45756958  0.15207697  0.99043988     0.06250
C631        C  0.46835198  0.18771408  0.98116726    -0.03710
C632        C  0.44449941  0.21464290  0.98264267    -0.08160
C633        C  0.40854486  0.20579219  0.98963231     0.05370
C634        C  0.39800584  0.16832805  0.49592079    -0.03190
Br635      Br  0.35032973  0.14638392  0.49788939    -0.03260
H636        H  0.41393304  0.11533746  0.50408140     0.09280
H637        H  0.45458986  0.24221565  0.97811715     0.07300
Br638      Br  0.01368799  0.20008874  0.96320424    -0.03310
C639        C  0.39849684  0.29912905  0.52511667    -0.09950
C640        C  0.39885987  0.27553983  0.99434691     0.06250
C641        C  0.41214008  0.29197231  0.96314508    -0.03710
C642        C  0.42376440  0.32875528  0.96346782    -0.08160
C643        C  0.42507196  0.35144756  0.49446739     0.05370
C644        C  0.41228662  0.33578783  0.52573752    -0.03190
Br645      Br  0.91314881  0.36222027  0.57037752    -0.02880
H646        H  0.38705842  0.28984820  0.54944301     0.09280
H647        H  0.43269053  0.33932452  0.93838407     0.07300
Br648      Br  0.41609930  0.26738396  0.91781104    -0.03310
C649        C  0.12322263  0.16340309  0.92407993    -0.09950
C650        C  0.10484534  0.14924021  0.95296038     0.06250
C651        C  0.09885727  0.17425924  0.98110819    -0.03710
C652        C  0.10998182  0.21073260  0.97892280    -0.08160
C653        C  0.13338788  0.22481740  0.95393833     0.05370
C654        C  0.13662380  0.20052095  0.92355561    -0.03190
Br655      Br  0.14775172  0.21483106  0.87599468    -0.02880
H656        H  0.12591181  0.14586392  0.90102890     0.09280
H657        H  0.09715703  0.22863487  0.99589530     0.07300
Br658      Br  0.07469620  0.16390867  0.52476097    -0.03310
C659        C  0.06564112  0.31924257  0.94451815    -0.09950
C660        C  0.07659743  0.35153487  0.96325579     0.06250
C661        C  0.10955200  0.35366944  0.98273539    -0.03710
C662        C  0.12884768  0.32383977  0.98520834    -0.08160
C663        C  0.11939116  0.29119232  0.96595695     0.05370
C664        C  0.08713308  0.28987313  0.94421115    -0.03190
Br665      Br  0.07232585  0.25345789  0.90832853    -0.02880
H666        H  0.04118564  0.31755480  0.92849313     0.09280
H667        H  0.15406192  0.32850526  0.99943693     0.07300
Br668      Br  0.13447887  0.39745261  0.00324660    -0.03310
C669        C  0.00719149  0.10492213  0.62764180    -0.09950
C670        C  0.99836032  0.06710990  0.62606817     0.06250
C671        C  0.99353254  0.04940160  0.65866642    -0.03710
C672        C  0.49695887  0.06943903  0.69133740    -0.08160
C673        C  0.00312094  0.10798209  0.69277807     0.05370
C674        C  0.01028476  0.12497450  0.65977178    -0.03190
Br675      Br  0.01993452  0.17650860  0.65491900    -0.02880
H676        H  0.01150959  0.11958445  0.60321773     0.09280
H677        H  0.49507688  0.05423189  0.71558918     0.07300
Br678      Br  0.48444680  0.49788100  0.66055151    -0.03310
C679        C  0.46322243  0.07699828  0.80677373    -0.09950
C680        C  0.98720219  0.08907944  0.83452964     0.06250
C681        C  0.01716290  0.11111973  0.82699471    -0.03710
C682        C  0.02630163  0.11538822  0.79231777    -0.08160
C683        C  0.00162458  0.10728265  0.76310001     0.05370
C684        C  0.46898558  0.08762657  0.77153594    -0.03190
Br685      Br  0.42951233  0.07654797  0.73843664    -0.02880
H686        H  0.44008846  0.05937101  0.81250331     0.09280
H687        H  0.05157813  0.13013175  0.79025931     0.07300
Br688      Br  0.04744522  0.13568164  0.86388278    -0.03310
C689        C  0.42232502  0.18563948  0.71322030    -0.09950
C690        C  0.41746231  0.19814780  0.74792429     0.06250
C691        C  0.44278478  0.19296798  0.77468318    -0.03710
C692        C  0.47163940  0.17380740  0.76648382    -0.08160
C693        C  0.47577086  0.15740308  0.73203178     0.05370
C694        C  0.44804132  0.16236221  0.70577308    -0.03190
Br695      Br  0.43337672  0.13391382  0.66307632    -0.02880
H696        H  0.40228508  0.18973741  0.69252270     0.09280
H697        H  0.49089372  0.17125782  0.78804690     0.07300
Br698      Br  0.43799261  0.20915385  0.82299974    -0.03310
C699        C  0.07202570  0.12559089  0.72599647    -0.09950
C700        C  0.04500960  0.14958533  0.73089672     0.06250
C701        C  0.05670358  0.18532720  0.74495875    -0.03710
C702        C  0.09253579  0.19409587  0.75498713    -0.08160
C703        C  0.11825263  0.16988032  0.74949159     0.05370
C704        C  0.10764275  0.13552982  0.73447410    -0.03190
Br705      Br  0.14139850  0.10117915  0.72469558    -0.02880
H706        H  0.06533337  0.09782895  0.71680061     0.09280
H707        H  0.10099414  0.22156977  0.76426540     0.07300
Br708      Br  0.02934787  0.22678079  0.74836140    -0.03310
C709        C  0.50593949  0.63082094  0.22879986    -0.03280
O710        O  0.46335631  0.56658173  0.38847168    -0.87280
O711        O  0.11921103  0.96743624  0.45920059    -0.87440
O712        O  0.08306757  0.58892053  0.42542713    -0.89110
O713        O  0.04832669  0.98351906  0.36200877    -0.87870
O714        O  0.00934989  0.93385256  0.37144536    -0.87460
O715        O  0.07937983  0.60199813  0.48457868    -0.88830
O716        O  0.11099239  0.00579878  0.41254890    -0.87310
O717        O  0.01963021  0.55705213  0.37308664    -0.86890
Zr718      Zr  0.05258269  0.52518223  0.41580954     2.84310
O719        O  0.04880922  0.96582194  0.43771130    -1.08870
O720        O  0.01726831  0.56006677  0.44990059    -1.09600
C721        C  0.98946142  0.56962178  0.36764758     1.05830
C722        C  0.12906196  0.98360029  0.43018435     1.05770
C723        C  0.08873065  0.61055350  0.45360725     1.08750
C724        C  0.03127518  0.95256684  0.35225030     1.06530
H725        H  0.09662100  0.53542579  0.47533443     0.32090
O726        O  0.07238160  0.52562497  0.47505242    -1.29820
H727        H  0.48809549  0.99807618  0.38653569     0.31770
O728        O  0.99460853  0.99946802  0.41169866    -1.31500
O729        O  0.06007395  0.94653849  0.06002136    -0.87270
O730        O  0.40167953  0.52741880  0.47853024    -0.88770
O731        O  0.09863616  0.55840159  0.03781642    -0.87350
O732        O  0.03117737  0.88960977  0.43923594    -0.87400
O733        O  0.42745365  0.94387751  0.41186058    -0.87110
O734        O  0.00374895  0.61366847  0.00348082    -0.86920
O735        O  0.47909543  0.51955481  0.08038074    -0.87290
O736        O  0.44362490  0.91433898  0.01712045    -0.86750
O737        O  0.02228391  0.56465648  0.07016554    -0.87810
O738        O  0.45666758  0.89420793  0.46153475    -0.86970
O739        O  0.11407675  0.00001886  0.03038487    -0.87370
O740        O  0.46052620  0.59864333  0.45979262    -0.87090
O741        O  0.43022997  0.00177537  0.39590229    -0.86740
O742        O  0.06342060  0.90411759  0.49063950    -0.87150
O743        O  0.00201772  0.95138849  0.07089598    -0.87450
O744        O  0.41183187  0.99211814  0.02710336    -0.88790
Zr745      Zr  0.06713234  0.96754360  0.49791813     2.83100
Zr746      Zr  0.45838013  0.53546880  0.44492343     2.83500
Zr747      Zr  0.03807294  0.56033364  0.00946089     2.84090
Zr748      Zr  0.99066081  0.93997011  0.43232334     2.83360
Zr749      Zr  0.47245431  0.97870461  0.02516168     2.84220
O750        O  0.45444915  0.97608357  0.46522920    -1.09360
O751        O  0.03178187  0.00227666  0.03136295    -1.08860
C752        C  0.03280656  0.94297779  0.07968150     1.05800
C753        C  0.39175357  0.51054663  0.00738983     1.08420
C754        C  0.12067414  0.53328831  0.04019714     1.05980
C755        C  0.05509659  0.88333803  0.46380870     1.06340
C756        C  0.41226125  0.97260515  0.40226743     1.05920
C757        C  0.47677474  0.62038539  0.48326573     1.05470
C758        C  0.99971142  0.54845779  0.09016908     1.05900
C759        C  0.44238727  0.88946356  0.99155954     1.05410
H760        H  0.46384148  0.55320014  0.01850439     0.32090
O761        O  0.47808865  0.53810623  0.00476724    -1.30460
H762        H  0.00711244  0.91926412  0.00335465     0.32110
O763        O  0.00870423  0.94297468  0.49291641    -1.31840
C764        C  0.26003578  0.50583515  0.08992865    -0.03280
O765        O  0.17596790  0.69087995  0.27524595    -0.87280
O766        O  0.25825642  0.78037033  0.11559614    -0.87440
O767        O  0.16240194  0.76487846  0.18919973    -0.89110
O768        O  0.21735612  0.66135084  0.16356132    -0.87870
O769        O  0.26814327  0.64053892  0.18768244    -0.87460
O770        O  0.17983141  0.81641925  0.22277427    -0.88830
O771        O  0.21123646  0.73985526  0.12581108    -0.87310
O772        O  0.16292527  0.69283796  0.21480850    -0.86890
Zr773      Zr  0.21182097  0.72466515  0.18810021     2.84310
O774        O  0.27057840  0.72391665  0.17454504    -1.08870
O775        O  0.21161313  0.75345245  0.24387955    -1.09600
C776        C  0.15507960  0.68510008  0.24687959     1.05830
C777        C  0.22825166  0.76232915  0.10570733     1.05770
C778        C  0.15705808  0.79621439  0.20360634     1.08750
C779        C  0.23961103  0.63658543  0.16875348     1.06530
H780        H  0.22574326  0.79878251  0.17041193     0.32090
O781        O  0.23844345  0.78456649  0.18718657    -1.29820
H782        H  0.22764553  0.66633023  0.23245069     0.31770
O783        O  0.23932428  0.69048435  0.23141483    -1.31500
O784        O  0.36092761  0.80807859  0.18447499    -0.87270
O785        O  0.27273638  0.72295724  0.34442865    -0.88770
O786        O  0.24773347  0.86310998  0.19996594    -0.87350
O787        O  0.32287026  0.68715419  0.15711479    -0.87400
O788        O  0.28891906  0.63845778  0.26023641    -0.87110
O789        O  0.21686754  0.81722708  0.30459637    -0.86920
O790        O  0.31963651  0.83465328  0.30111240    -0.87290
O791        O  0.37705925  0.73879401  0.27061443    -0.86750
O792        O  0.28572885  0.85802562  0.25818847    -0.87810
O793        O  0.35777948  0.68654222  0.23908693    -0.86970
O794        O  0.28938873  0.84737117  0.16136871    -0.87370
O795        O  0.20116981  0.75776143  0.31741907    -0.87090
O796        O  0.24958340  0.65589333  0.30015796    -0.86740
O797        O  0.32400030  0.74447786  0.13363132    -0.87150
O798        O  0.37289121  0.80414992  0.24471625    -0.87450
O799        O  0.32515113  0.75640678  0.33552633    -0.88790
Zr800      Zr  0.29737657  0.78369982  0.17242564     2.83100
Zr801      Zr  0.23766972  0.71833378  0.28723478     2.83500
Zr802      Zr  0.23915852  0.81267714  0.24347059     2.84090
Zr803      Zr  0.29839780  0.68953259  0.21781500     2.83360
Zr804      Zr  0.32503770  0.77405119  0.27298101     2.84220
O805        O  0.29710853  0.71532873  0.27465547    -1.09360
O806        O  0.29764128  0.80923058  0.22979034    -1.08860
C807        C  0.38174199  0.81247777  0.21325094     1.05800
C808        C  0.30334838  0.73816176  0.35528928     1.08420
C809        C  0.26850395  0.86990150  0.17364985     1.05980
C810        C  0.32865069  0.71059830  0.13205222     1.06340
C811        C  0.26913738  0.63230191  0.28733205     1.05920
C812        C  0.20612915  0.79166046  0.32596437     1.05470
C813        C  0.30244974  0.86062018  0.28818731     1.05900
C814        C  0.38192009  0.70838843  0.25453108     1.05410
H815        H  0.26861339  0.78787052  0.31028158     0.32090
O816        O  0.26674705  0.77711209  0.28659392    -1.30460
H817        H  0.34871202  0.74599894  0.20762855     0.32110
O818        O  0.32513701  0.74823342  0.21522159    -1.31840
C819        C  0.14992578  0.76564238  0.46155781    -0.03280
C820        C  0.02962225  0.87281774  0.21335815    -0.03280
C821        C  0.38166929  0.73504276  0.49379302    -0.03280
C822        C  0.26745169  0.98929989  0.36504482    -0.03280
C823        C  0.21771041  0.77502309  0.38774167    -0.09950
C824        C  0.20188151  0.79867950  0.36412471     0.06250
C825        C  0.17502958  0.81828101  0.37604658    -0.03710
C826        C  0.16087574  0.80997511  0.40880583    -0.08160
C827        C  0.17155403  0.78025973  0.42975796     0.05370
C828        C  0.20231062  0.76438857  0.41940158    -0.03190
Br829      Br  0.22218632  0.72470592  0.44380013    -0.02880
H830        H  0.23936785  0.76074749  0.37916943     0.09280
H831        H  0.13985669  0.82614485  0.41570579     0.07300
Br832      Br  0.15448510  0.85387140  0.34711086    -0.03310
C833        C  0.22734766  0.78067057  0.03946473    -0.09950
C834        C  0.20999732  0.76677579  0.06931451     0.06250
C835        C  0.17312602  0.75855206  0.06443446    -0.03710
C836        C  0.15624845  0.75929845  0.03070008    -0.08160
C837        C  0.17351977  0.76764496  0.99887279     0.05370
C838        C  0.20911341  0.78391988  0.00568774    -0.03190
Br839      Br  0.23100978  0.82138571  0.47701379    -0.02880
H840        H  0.25457433  0.79150551  0.04302380     0.09280
H841        H  0.12823530  0.75803752  0.03118285     0.07300
Br842      Br  0.14154973  0.75094843  0.10293938    -0.03310
C843        C  0.35609648  0.70438357  0.43318359    -0.09950
C844        C  0.35353495  0.73098149  0.46098077     0.06250
C845        C  0.32841840  0.75701523  0.45397556    -0.03710
C846        C  0.31083318  0.75822045  0.42005522    -0.08160
C847        C  0.31590140  0.73284147  0.39275151     0.05370
C848        C  0.33755880  0.70496814  0.40025463    -0.03190
Br849      Br  0.34553213  0.66874705  0.36461197    -0.02880
H850        H  0.37466024  0.68399624  0.43481071     0.09280
H851        H  0.29413226  0.78001954  0.41461382     0.07300
Br852      Br  0.31855183  0.79389918  0.48801823    -0.03310
C853        C  0.37718061  0.70821255  0.09363604    -0.09950
C854        C  0.34124695  0.70054971  0.09737175     0.06250
C855        C  0.31818890  0.70353989  0.06732674    -0.03710
C856        C  0.33072733  0.71661550  0.03511100    -0.08160
C857        C  0.36689052  0.72595357  0.03114350     0.05370
C858        C  0.39016352  0.72168035  0.06186499    -0.03190
Br859      Br  0.44012307  0.73571909  0.06485563    -0.02880
H860        H  0.39494522  0.70793023  0.11702922     0.09280
H861        H  0.31187222  0.71811113  0.01295845     0.07300
Br862      Br  0.26843249  0.69331587  0.07005068    -0.03310
C863        C  0.28136130  0.95612581  0.30654972    -0.09950
C864        C  0.26670418  0.95405889  0.34021729     0.06250
C865        C  0.25885310  0.91763152  0.35276927    -0.03710
C866        C  0.27490334  0.88852631  0.33787293    -0.08160
C867        C  0.29624469  0.89332310  0.30886254     0.05370
C868        C  0.29823395  0.92729936  0.29243092    -0.03190
Br869      Br  0.32470702  0.93613979  0.25097976    -0.02880
H870        H  0.28125643  0.98045733  0.29127845     0.09280
H871        H  0.26937090  0.86144982  0.34811027     0.07300
Br872      Br  0.22914510  0.90316402  0.39150653    -0.03310
C873        C  0.24144443  0.55022348  0.34497654    -0.09950
C874        C  0.26910452  0.52658639  0.34274783     0.06250
C875        C  0.29788378  0.54049886  0.32144451    -0.03710
C876        C  0.29681469  0.57389900  0.30336975    -0.08160
C877        C  0.26848307  0.59582537  0.30552101     0.05370
C878        C  0.24032453  0.58285803  0.32646894    -0.03190
Br879      Br  0.19766212  0.60702717  0.33066320    -0.02880
H880        H  0.21974534  0.54461342  0.36198330     0.09280
H881        H  0.31910144  0.58333149  0.28805353     0.07300
Br882      Br  0.34177485  0.51850845  0.31619590    -0.03310
C883        C  0.44063311  0.81622789  0.18455935    -0.09950
C884        C  0.41965915  0.82602705  0.21244860     0.06250
C885        C  0.43691602  0.84328943  0.24331062    -0.03710
C886        C  0.47324612  0.85113644  0.24517266    -0.08160
C887        C  0.49374568  0.84819848  0.21499348     0.05370
C888        C  0.47712538  0.82709068  0.18522434    -0.03190
Br889      Br  0.50033718  0.81521878  0.14237308    -0.02880
H890        H  0.42847939  0.80087863  0.16170460     0.09280
H891        H  0.48436283  0.86278155  0.27016203     0.07300
Br892      Br  0.41280542  0.86101503  0.28357902    -0.03310
C893        C  0.12325426  0.85005976  0.19729170    -0.09950
C894        C  0.12280351  0.81212190  0.19882920     0.06250
C895        C  0.08975232  0.79208364  0.19826951    -0.03710
C896        C  0.05931107  0.81051709  0.20473930    -0.08160
C897        C  0.06081923  0.84919625  0.20338689     0.05370
C898        C  0.09197765  0.86502894  0.18865737    -0.03190
Br899      Br  0.09085354  0.86671327  0.13717204    -0.02880
H900        H  0.14785125  0.86611114  0.19334420     0.09280
H901        H  0.03502583  0.79470607  0.20970458     0.07300
Br902      Br  0.08533992  0.74259724  0.18233695    -0.03310
C903        C  0.29269499  0.96247221  0.13079861    -0.09950
C904        C  0.26128377  0.96895262  0.11116762     0.06250
C905        C  0.23412341  0.93909340  0.11029284    -0.03710
C906        C  0.23612913  0.91007163  0.13391600    -0.08160
C907        C  0.26682325  0.90493139  0.15409681     0.05370
C908        C  0.29634506  0.92999811  0.14961601    -0.03190
Br909      Br  0.34303794  0.91934134  0.16464378    -0.02880
H910        H  0.31535469  0.98209087  0.13004810     0.09280
H911        H  0.21437182  0.88921224  0.13408583     0.07300
Br912      Br  0.19403776  0.93101421  0.07689008    -0.03310
C913        C  0.26040892  0.54163295  0.15001856    -0.09950
C914        C  0.26323492  0.54202235  0.11279362     0.06250
C915        C  0.25854116  0.57616422  0.09565145    -0.03710
C916        C  0.24326982  0.60376176  0.11350206    -0.08160
C917        C  0.23701074  0.60163196  0.14951850     0.05370
C918        C  0.24617689  0.57033306  0.16795300    -0.03190
Br919      Br  0.23883530  0.56541038  0.21798909    -0.02880
H920        H  0.26528309  0.51758689  0.16484899     0.09280
H921        H  0.23914434  0.62868180  0.09982304     0.07300
Br922      Br  0.27048967  0.58862608  0.04754508    -0.03310
C923        C  0.05408463  0.92744204  0.17725882    -0.09950
C924        C  0.02605577  0.90105342  0.18359640     0.06250
C925        C  0.99661731  0.90062861  0.15978614    -0.03710
C926        C  0.00235350  0.90831033  0.12476788    -0.08160
C927        C  0.03364378  0.92813876  0.11541259     0.05370
C928        C  0.05769850  0.94144033  0.14298353    -0.03190
Br929      Br  0.09584544  0.97650958  0.13503669    -0.02880
H930        H  0.07489208  0.93405887  0.19749311     0.09280
H931        H  0.48027085  0.90300301  0.10568811     0.07300
Br932      Br  0.44931847  0.90519227  0.17445714    -0.03310
C933        C  0.01567260  0.92648135  0.25411944    -0.09950
C934        C  0.03676552  0.89665118  0.24911184     0.06250
C935        C  0.05808560  0.88784719  0.27953552    -0.03710
C936        C  0.05761540  0.90792855  0.31200994    -0.08160
C937        C  0.03619894  0.93683039  0.31602981     0.05370
C938        C  0.01496245  0.94574272  0.28662971    -0.03190
Br939      Br  0.48128210  0.98138495  0.29081661    -0.02880
H940        H  0.49738512  0.93369123  0.23314581     0.09280
H941        H  0.07292336  0.89967308  0.33505643     0.07300
Br942      Br  0.08581076  0.84697280  0.28189086    -0.03310
C943        C  0.20078963  0.97803760  0.36377307    -0.09950
C944        C  0.23216902  0.98549263  0.38521000     0.06250
C945        C  0.22816282  0.98885486  0.42278638    -0.03710
C946        C  0.19469694  0.98292000  0.43729244    -0.08160
C947        C  0.16395055  0.97794619  0.41535271     0.05370
C948        C  0.16754429  0.97505054  0.37812150    -0.03190
Br949      Br  0.12810229  0.96739591  0.34465608    -0.02880
H950        H  0.20217089  0.97576989  0.33501308     0.09280
H951        H  0.19245432  0.98543578  0.46589537     0.07300
Br952      Br  0.26457143  0.00707023  0.45625641    -0.03310
C953        C  0.36205474  0.01158184  0.40299342    -0.09950
C954        C  0.37364792  0.97602866  0.40246923     0.06250
C955        C  0.34807644  0.94692133  0.40492770    -0.03710
C956        C  0.31251754  0.95376188  0.40210062    -0.08160
C957        C  0.30150962  0.98769359  0.39026206     0.05370
C958        C  0.32651994  0.01770363  0.39768406    -0.03190
Br959      Br  0.31475689  0.06718393  0.40407711    -0.02880
H960        H  0.38075611  0.03523684  0.40647460     0.09280
H961        H  0.29404695  0.93143355  0.40729655     0.07300
Br962      Br  0.35928557  0.89742775  0.41010652    -0.03310
C963        C  0.16293872  0.52969874  0.08874500    -0.09950
C964        C  0.15708092  0.54047024  0.05405293     0.06250
C965        C  0.18410324  0.53789146  0.02991341    -0.03710
C966        C  0.21515130  0.52155061  0.03978121    -0.08160
C967        C  0.22150033  0.50989028  0.07485785     0.05370
C968        C  0.19314339  0.51314693  0.09914125    -0.03190
Br969      Br  0.19067568  0.49515428  0.14726602    -0.02880
H970        H  0.14199949  0.53109249  0.10716013     0.09280
H971        H  0.23550874  0.02099223  0.02091085     0.07300
Br972      Br  0.17939561  0.05888110  0.48371619    -0.03310
C973        C  0.32815237  0.98598258  0.01497023    -0.09950
C974        C  0.35580748  0.51338653  0.02200789     0.06250
C975        C  0.35263081  0.53642659  0.05169195    -0.03710
C976        C  0.32283857  0.53277863  0.07252601    -0.08160
C977        C  0.29269435  0.50789029  0.06407440     0.05370
C978        C  0.29729196  0.48299235  0.03533580    -0.03190
Br979      Br  0.26461450  0.94182026  0.02407565    -0.02880
H980        H  0.33120845  0.96569042  0.49431879     0.09280
H981        H  0.32426466  0.55002469  0.09620603     0.07300
Br982      Br  0.39029408  0.57174992  0.06730604    -0.03310
C983        C  0.42280098  0.64333358  0.99878964    -0.09950
C984        C  0.45758548  0.65207337  0.49043840     0.06250
C985        C  0.46836419  0.68771268  0.48117013    -0.03710
C986        C  0.44450641  0.71463706  0.48264156    -0.08160
C987        C  0.40855155  0.70578071  0.48962690     0.05370
C988        C  0.39801672  0.66831509  0.99591155    -0.03190
Br989      Br  0.35034214  0.64636709  0.99788001    -0.03260
H990        H  0.41395000  0.61532591  0.00406775     0.09280
H991        H  0.45459374  0.74221155  0.47811918     0.07300
Br992      Br  0.01370457  0.70009670  0.46322158    -0.03310
C993        C  0.39849298  0.79911285  0.02511845    -0.09950
C994        C  0.39885822  0.77552582  0.49434718     0.06250
C995        C  0.41213397  0.79196207  0.46314550    -0.03710
C996        C  0.42374706  0.82874757  0.46346795    -0.08160
C997        C  0.42505080  0.85143913  0.99446796     0.05370
C998        C  0.41227348  0.83577474  0.02573924    -0.03190
Br999      Br  0.91313345  0.86220530  0.07038007    -0.02880
H1000       H  0.38705896  0.78982830  0.04944560     0.09280
H1001       H  0.43266829  0.83931925  0.43838336     0.07300
Br1002     Br  0.41610108  0.76737602  0.41781163    -0.03310
C1003       C  0.12323936  0.66341963  0.42409106    -0.09950
C1004       C  0.10486722  0.64925386  0.45297324     0.06250
C1005       C  0.09887727  0.67427156  0.48112191    -0.03710
C1006       C  0.10999570  0.71074654  0.47893587    -0.08160
C1007       C  0.13339334  0.72483617  0.45394614     0.05370
C1008       C  0.13663147  0.70053975  0.42356384    -0.03190
Br1009     Br  0.14775016  0.71484958  0.37600035    -0.02880
H1010       H  0.12593056  0.64588068  0.40104035     0.09280
H1011       H  0.09717344  0.72864513  0.49591360     0.07300
Br1012     Br  0.07472068  0.66391687  0.02477670    -0.03310
C1013       C  0.06562700  0.81924547  0.44450715    -0.09950
C1014       C  0.07657527  0.85154147  0.46324182     0.06250
C1015       C  0.10953077  0.85368661  0.48272049    -0.03710
C1016       C  0.12883550  0.82386322  0.48519558    -0.08160
C1017       C  0.11938423  0.79121018  0.46595168     0.05370
C1018       C  0.08712591  0.78988125  0.44420516    -0.03190
Br1019     Br  0.07232371  0.75345693  0.40833024    -0.02880
H1020       H  0.04117063  0.81754949  0.42848322     0.09280
H1021       H  0.15405062  0.82853630  0.49942169     0.07300
Br1022     Br  0.13444253  0.89747669  0.50323345    -0.03310
C1023       C  0.00718882  0.60492934  0.12763968    -0.09950
C1024       C  0.99836802  0.56711573  0.12606778     0.06250
C1025       C  0.99354198  0.54940709  0.15866587    -0.03710
C1026       C  0.49696243  0.56944504  0.19133618    -0.08160
C1027       C  0.00311931  0.60798837  0.19277602     0.05370
C1028       C  0.01027784  0.62498230  0.15976904    -0.03190
Br1029     Br  0.01991871  0.67651763  0.15491536    -0.02880
H1030       H  0.01150416  0.61959139  0.10321494     0.09280
H1031       H  0.49508274  0.55423790  0.21558811     0.07300
Br1032     Br  0.48442467  0.99787653  0.16055131    -0.03310
C1033       C  0.46325103  0.57700009  0.30678316    -0.09950
C1034       C  0.98724183  0.58907553  0.33453186     0.06250
C1035       C  0.01720162  0.61111300  0.32698871    -0.03710
C1036       C  0.02632561  0.61538820  0.29230863    -0.08160
C1037       C  0.00163823  0.60728711  0.26309875     0.05370
C1038       C  0.46900296  0.58763019  0.27154379    -0.03190
Br1039     Br  0.42952219  0.57655087  0.23845412    -0.02880
H1040       H  0.44011773  0.55937488  0.31251934     0.09280
H1041       H  0.05160186  0.63012980  0.29024339     0.07300
Br1042     Br  0.04749979  0.63566927  0.36386770    -0.03310
C1043       C  0.42232877  0.68564737  0.21322405    -0.09950
C1044       C  0.41746629  0.69815534  0.24792831     0.06250
C1045       C  0.44278702  0.69296994  0.27468778    -0.03710
C1046       C  0.47164031  0.67380662  0.26648805    -0.08160
C1047       C  0.47577177  0.65740543  0.23203470     0.05370
C1048       C  0.44804128  0.66236547  0.20577743    -0.03190
Br1049     Br  0.43336817  0.63390978  0.16308707    -0.02880
H1050       H  0.40228953  0.68974712  0.19252629     0.09280
H1051       H  0.49089339  0.67125212  0.28805152     0.07300
Br1052     Br  0.43799444  0.70915317  0.32300493    -0.03310
C1053       C  0.07202700  0.62560010  0.22597595    -0.09950
C1054       C  0.04501124  0.64959296  0.23088681     0.06250
C1055       C  0.05670615  0.68533028  0.24495956    -0.03710
C1056       C  0.09253874  0.69409543  0.25498867    -0.08160
C1057       C  0.11825438  0.66988052  0.24948453     0.05370
C1058       C  0.10764370  0.63553512  0.23445636    -0.03190
Br1059     Br  0.14139798  0.60118495  0.22466969    -0.02880
H1060       H  0.06533488  0.59784046  0.21677309     0.09280
H1061       H  0.10099816  0.72156664  0.26427434     0.07300
Br1062     Br  0.02935085  0.72678289  0.24837388    -0.03310
C1063       C  0.50593949  0.63082093  0.72879986    -0.03280
O1064       O  0.46335632  0.56658173  0.88847168    -0.87280
O1065       O  0.11921104  0.96743624  0.95920057    -0.87440
O1066       O  0.08306757  0.58892053  0.92542713    -0.89110
O1067       O  0.04832669  0.98351905  0.86200877    -0.87870
O1068       O  0.00934989  0.93385256  0.87144535    -0.87460
O1069       O  0.07937985  0.60199812  0.98457868    -0.88830
O1070       O  0.11099240  0.00579879  0.91254890    -0.87310
O1071       O  0.01963021  0.55705212  0.87308663    -0.86890
Zr1072     Zr  0.05258270  0.52518223  0.91580954     2.84310
O1073       O  0.04880922  0.96582194  0.93771130    -1.08870
O1074       O  0.01726832  0.56006677  0.94990059    -1.09600
C1075       C  0.98946142  0.56962178  0.86764757     1.05830
C1076       C  0.12906197  0.98360030  0.93018434     1.05770
C1077       C  0.08873066  0.61055349  0.95360724     1.08750
C1078       C  0.03127518  0.95256684  0.85225029     1.06530
H1079       H  0.09662101  0.53542579  0.97533443     0.32090
O1080       O  0.07238160  0.52562498  0.97505241    -1.29820
H1081       H  0.48809549  0.99807618  0.88653569     0.31770
O1082       O  0.99460854  0.99946801  0.91169866    -1.31500
O1083       O  0.06007393  0.94653850  0.56002137    -0.87270
O1084       O  0.40167954  0.52741880  0.97853025    -0.88770
O1085       O  0.09863615  0.55840158  0.53781642    -0.87350
O1086       O  0.03117738  0.88960977  0.93923594    -0.87400
O1087       O  0.42745367  0.94387752  0.91186058    -0.87110
O1088       O  0.00374895  0.61366847  0.50348082    -0.86920
O1089       O  0.47909542  0.51955480  0.58038073    -0.87290
O1090       O  0.44362488  0.91433897  0.51712044    -0.86750
O1091       O  0.02228390  0.56465647  0.57016554    -0.87810
O1092       O  0.45666759  0.89420793  0.96153475    -0.86970
O1093       O  0.11407673  0.00001886  0.53038489    -0.87370
O1094       O  0.46052620  0.59864333  0.95979262    -0.87090
O1095       O  0.43022997  0.00177537  0.89590230    -0.86740
O1096       O  0.06342061  0.90411760  0.99063950    -0.87150
O1097       O  0.00201769  0.95138849  0.57089597    -0.87450
O1098       O  0.41183185  0.99211814  0.52710334    -0.88790
Zr1099     Zr  0.06713236  0.96754360  0.99791812     2.83100
Zr1100     Zr  0.45838014  0.53546880  0.94492343     2.83500
Zr1101     Zr  0.03807293  0.56033363  0.50946090     2.84090
Zr1102     Zr  0.99066082  0.93997011  0.93232334     2.83360
Zr1103     Zr  0.47245429  0.97870461  0.52516167     2.84220
O1104       O  0.45444916  0.97608357  0.96522921    -1.09360
O1105       O  0.03178185  0.00227666  0.53136295    -1.08860
C1106       C  0.03280654  0.94297780  0.57968150     1.05800
C1107       C  0.39175356  0.51054663  0.50738982     1.08420
C1108       C  0.12067413  0.53328830  0.54019714     1.05980
C1109       C  0.05509660  0.88333803  0.96380869     1.06340
C1110       C  0.41226125  0.97260515  0.90226743     1.05920
C1111       C  0.47677475  0.62038539  0.98326573     1.05470
C1112       C  0.99971141  0.54845779  0.59016908     1.05900
C1113       C  0.44238726  0.88946356  0.49155953     1.05410
H1114       H  0.46384147  0.55320014  0.51850439     0.32090
O1115       O  0.47808864  0.53810623  0.50476724    -1.30460
H1116       H  0.00711243  0.91926412  0.50335464     0.32110
O1117       O  0.00870424  0.94297468  0.99291641    -1.31840
C1118       C  0.26003577  0.50583515  0.58992865    -0.03280
O1119       O  0.17596790  0.69087995  0.77524595    -0.87280
O1120       O  0.25825642  0.78037033  0.61559614    -0.87440
O1121       O  0.16240195  0.76487847  0.68919970    -0.89110
O1122       O  0.21735612  0.66135084  0.66356132    -0.87870
O1123       O  0.26814328  0.64053892  0.68768244    -0.87460
O1124       O  0.17983141  0.81641927  0.72277423    -0.88830
O1125       O  0.21123647  0.73985526  0.62581107    -0.87310
O1126       O  0.16292528  0.69283796  0.71480850    -0.86890
Zr1127     Zr  0.21182098  0.72466515  0.68810020     2.84310
O1128       O  0.27057841  0.72391666  0.67454504    -1.08870
O1129       O  0.21161313  0.75345245  0.74387955    -1.09600
C1130       C  0.15507960  0.68510008  0.74687958     1.05830
C1131       C  0.22825167  0.76232915  0.60570733     1.05770
C1132       C  0.15705809  0.79621441  0.70360629     1.08750
C1133       C  0.23961103  0.63658542  0.66875348     1.06530
H1134       H  0.22574327  0.79878251  0.67041193     0.32090
O1135       O  0.23844345  0.78456649  0.68718656    -1.29820
H1136       H  0.22764553  0.66633023  0.73245069     0.31770
O1137       O  0.23932428  0.69048435  0.73141483    -1.31500
O1138       O  0.36092763  0.80807857  0.68447499    -0.87270
O1139       O  0.27273639  0.72295725  0.84442865    -0.88770
O1140       O  0.24773348  0.86310998  0.69996593    -0.87350
O1141       O  0.32287027  0.68715418  0.65711479    -0.87400
O1142       O  0.28891907  0.63845778  0.76023641    -0.87110
O1143       O  0.21686754  0.81722709  0.80459637    -0.86920
O1144       O  0.31963651  0.83465328  0.80111240    -0.87290
O1145       O  0.37705925  0.73879401  0.77061443    -0.86750
O1146       O  0.28572887  0.85802562  0.75818845    -0.87810
O1147       O  0.35777948  0.68654222  0.73908693    -0.86970
O1148       O  0.28938874  0.84737117  0.66136871    -0.87370
O1149       O  0.20116981  0.75776144  0.81741906    -0.87090
O1150       O  0.24958341  0.65589334  0.80015797    -0.86740
O1151       O  0.32400030  0.74447786  0.63363132    -0.87150
O1152       O  0.37289121  0.80414991  0.74471625    -0.87450
O1153       O  0.32515113  0.75640679  0.83552633    -0.88790
Zr1154     Zr  0.29737658  0.78369982  0.67242564     2.83100
Zr1155     Zr  0.23766972  0.71833378  0.78723478     2.83500
Zr1156     Zr  0.23915852  0.81267715  0.74347058     2.84090
Zr1157     Zr  0.29839780  0.68953259  0.71781500     2.83360
Zr1158     Zr  0.32503770  0.77405119  0.77298101     2.84220
O1159       O  0.29710853  0.71532873  0.77465547    -1.09360
O1160       O  0.29764128  0.80923058  0.72979034    -1.08860
C1161       C  0.38174200  0.81247775  0.71325094     1.05800
C1162       C  0.30334838  0.73816177  0.85528928     1.08420
C1163       C  0.26850396  0.86990150  0.67364984     1.05980
C1164       C  0.32865070  0.71059830  0.63205222     1.06340
C1165       C  0.26913739  0.63230192  0.78733205     1.05920
C1166       C  0.20612915  0.79166046  0.82596437     1.05470
C1167       C  0.30244975  0.86062018  0.78818729     1.05900
C1168       C  0.38192009  0.70838843  0.75453108     1.05410
H1169       H  0.26861339  0.78787052  0.81028157     0.32090
O1170       O  0.26674705  0.77711210  0.78659392    -1.30460
H1171       H  0.34871202  0.74599893  0.70762856     0.32110
O1172       O  0.32513701  0.74823342  0.71522159    -1.31840
C1173       C  0.14992579  0.76564238  0.96155781    -0.03280
C1174       C  0.02962225  0.87281774  0.71335814    -0.03280
C1175       C  0.38166930  0.73504276  0.99379302    -0.03280
C1176       C  0.26745170  0.98929989  0.86504481    -0.03280
C1177       C  0.21771042  0.77502309  0.88774167    -0.09950
C1178       C  0.20188151  0.79867950  0.86412471     0.06250
C1179       C  0.17502960  0.81828101  0.87604659    -0.03710
C1180       C  0.16087576  0.80997511  0.90880584    -0.08160
C1181       C  0.17155404  0.78025972  0.92975796     0.05370
C1182       C  0.20231062  0.76438857  0.91940157    -0.03190
Br1183     Br  0.22218632  0.72470591  0.94380013    -0.02880
H1184       H  0.23936785  0.76074748  0.87916943     0.09280
H1185       H  0.13985671  0.82614485  0.91570580     0.07300
Br1186     Br  0.15448513  0.85387142  0.84711088    -0.03310
C1187       C  0.22734766  0.78067058  0.53946473    -0.09950
C1188       C  0.20999733  0.76677579  0.56931451     0.06250
C1189       C  0.17312603  0.75855205  0.56443446    -0.03710
C1190       C  0.15624845  0.75929845  0.53070008    -0.08160
C1191       C  0.17351977  0.76764496  0.49887279     0.05370
C1192       C  0.20911341  0.78391989  0.50568774    -0.03190
Br1193     Br  0.23100979  0.82138570  0.97701379    -0.02880
H1194       H  0.25457433  0.79150553  0.54302379     0.09280
H1195       H  0.12823530  0.75803751  0.53118286     0.07300
Br1196     Br  0.14154974  0.75094841  0.60293938    -0.03310
C1197       C  0.35609649  0.70438358  0.93318359    -0.09950
C1198       C  0.35353496  0.73098149  0.96098077     0.06250
C1199       C  0.32841841  0.75701523  0.95397556    -0.03710
C1200       C  0.31083319  0.75822045  0.92005522    -0.08160
C1201       C  0.31590141  0.73284148  0.89275151     0.05370
C1202       C  0.33755881  0.70496814  0.90025463    -0.03190
Br1203     Br  0.34553214  0.66874706  0.86461196    -0.02880
H1204       H  0.37466025  0.68399624  0.93481071     0.09280
H1205       H  0.29413227  0.78001954  0.91461382     0.07300
Br1206     Br  0.31855184  0.79389919  0.98801823    -0.03310
C1207       C  0.37718061  0.70821255  0.59363604    -0.09950
C1208       C  0.34124695  0.70054971  0.59737175     0.06250
C1209       C  0.31818890  0.70353989  0.56732674    -0.03710
C1210       C  0.33072733  0.71661550  0.53511100    -0.08160
C1211       C  0.36689051  0.72595357  0.53114350     0.05370
C1212       C  0.39016351  0.72168035  0.56186499    -0.03190
Br1213     Br  0.44012306  0.73571910  0.56485562    -0.02880
H1214       H  0.39494522  0.70793023  0.61702922     0.09280
H1215       H  0.31187222  0.71811113  0.51295845     0.07300
Br1216     Br  0.26843249  0.69331586  0.57005068    -0.03310
C1217       C  0.28136130  0.95612581  0.80654971    -0.09950
C1218       C  0.26670418  0.95405889  0.84021727     0.06250
C1219       C  0.25885309  0.91763152  0.85276925    -0.03710
C1220       C  0.27490332  0.88852630  0.83787290    -0.08160
C1221       C  0.29624468  0.89332310  0.80886252     0.05370
C1222       C  0.29823395  0.92729936  0.79243091    -0.03190
Br1223     Br  0.32470703  0.93613979  0.75097975    -0.02880
H1224       H  0.28125644  0.98045733  0.79127844     0.09280
H1225       H  0.26937088  0.86144982  0.84811025     0.07300
Br1226     Br  0.22914510  0.90316402  0.89150652    -0.03310
C1227       C  0.24144445  0.55022350  0.84497656    -0.09950
C1228       C  0.26910455  0.52658641  0.84274784     0.06250
C1229       C  0.29788380  0.54049888  0.82144452    -0.03710
C1230       C  0.29681471  0.57389902  0.80336976    -0.08160
C1231       C  0.26848309  0.59582538  0.80552102     0.05370
C1232       C  0.24032454  0.58285804  0.82646896    -0.03190
Br1233     Br  0.19766214  0.60702718  0.83066322    -0.02880
H1234       H  0.21974537  0.54461344  0.86198333     0.09280
H1235       H  0.31910146  0.58333151  0.78805354     0.07300
Br1236     Br  0.34177488  0.51850848  0.81619592    -0.03310
C1237       C  0.44063313  0.81622789  0.68455933    -0.09950
C1238       C  0.41965918  0.82602701  0.71244862     0.06250
C1239       C  0.43691607  0.84328934  0.74331065    -0.03710
C1240       C  0.47324617  0.85113635  0.74517267    -0.08160
C1241       C  0.49374569  0.84819846  0.71499346     0.05370
C1242       C  0.47712539  0.82709068  0.68522431    -0.03190
Br1243     Br  0.50033719  0.81521879  0.64237305    -0.02880
H1244       H  0.42847939  0.80087865  0.66170458     0.09280
H1245       H  0.48436289  0.86278141  0.77016205     0.07300
Br1246     Br  0.41280550  0.86101487  0.78357911    -0.03310
C1247       C  0.12325426  0.85005977  0.69729159    -0.09950
C1248       C  0.12280352  0.81212191  0.69882914     0.06250
C1249       C  0.08975234  0.79208365  0.69826950    -0.03710
C1250       C  0.05931109  0.81051709  0.70473931    -0.08160
C1251       C  0.06081924  0.84919625  0.70338686     0.05370
C1252       C  0.09197763  0.86502893  0.68865730    -0.03190
Br1253     Br  0.09085346  0.86671324  0.63717197    -0.02880
H1254       H  0.14785124  0.86611114  0.69334404     0.09280
H1255       H  0.03502586  0.79470608  0.70970461     0.07300
Br1256     Br  0.08533993  0.74259723  0.68233696    -0.03310
C1257       C  0.29269499  0.96247220  0.63079859    -0.09950
C1258       C  0.26128377  0.96895262  0.61116760     0.06250
C1259       C  0.23412341  0.93909340  0.61029283    -0.03710
C1260       C  0.23612914  0.91007162  0.63391598    -0.08160
C1261       C  0.26682326  0.90493139  0.65409679     0.05370
C1262       C  0.29634506  0.92999811  0.64961600    -0.03190
Br1263     Br  0.34303794  0.91934135  0.66464377    -0.02880
H1264       H  0.31535468  0.98209087  0.63004808     0.09280
H1265       H  0.21437182  0.88921224  0.63408582     0.07300
Br1266     Br  0.19403776  0.93101420  0.57689007    -0.03310
C1267       C  0.26040892  0.54163295  0.65001856    -0.09950
C1268       C  0.26323492  0.54202234  0.61279362     0.06250
C1269       C  0.25854115  0.57616421  0.59565145    -0.03710
C1270       C  0.24326981  0.60376176  0.61350206    -0.08160
C1271       C  0.23701075  0.60163196  0.64951851     0.05370
C1272       C  0.24617689  0.57033306  0.66795300    -0.03190
Br1273     Br  0.23883531  0.56541038  0.71798910    -0.02880
H1274       H  0.26528309  0.51758689  0.66484899     0.09280
H1275       H  0.23914433  0.62868180  0.59982304     0.07300
Br1276     Br  0.27048965  0.58862607  0.54754508    -0.03310
C1277       C  0.05408463  0.92744204  0.67725882    -0.09950
C1278       C  0.02605576  0.90105343  0.68359641     0.06250
C1279       C  0.99661729  0.90062862  0.65978616    -0.03710
C1280       C  0.00235347  0.90831036  0.62476789    -0.08160
C1281       C  0.03364375  0.92813878  0.61541260     0.05370
C1282       C  0.05769849  0.94144034  0.64298353    -0.03190
Br1283     Br  0.09584544  0.97650957  0.63503668    -0.02880
H1284       H  0.07489208  0.93405887  0.69749310     0.09280
H1285       H  0.48027082  0.90300305  0.60568814     0.07300
Br1286     Br  0.44931845  0.90519225  0.67445717    -0.03310
C1287       C  0.01567250  0.92648127  0.75411946    -0.09950
C1288       C  0.03676550  0.89665118  0.74911183     0.06250
C1289       C  0.05808570  0.88784728  0.77953547    -0.03710
C1290       C  0.05761549  0.90792865  0.81200989    -0.08160
C1291       C  0.03619893  0.93683040  0.81602980     0.05370
C1292       C  0.01496235  0.94574264  0.78662974    -0.03190
Br1293     Br  0.48128188  0.98138475  0.79081669    -0.02880
H1294       H  0.49738496  0.93369108  0.73314586     0.09280
H1295       H  0.07292353  0.89967324  0.83505636     0.07300
Br1296     Br  0.08581104  0.84697304  0.78189075    -0.03310
C1297       C  0.20078964  0.97803762  0.86377306    -0.09950
C1298       C  0.23216903  0.98549263  0.88520999     0.06250
C1299       C  0.22816282  0.98885483  0.92278637    -0.03710
C1300       C  0.19469694  0.98291998  0.93729243    -0.08160
C1301       C  0.16395055  0.97794620  0.91535269     0.05370
C1302       C  0.16754429  0.97505058  0.87812149    -0.03190
Br1303     Br  0.12810230  0.96739603  0.84465605    -0.02880
H1304       H  0.20217090  0.97576993  0.83501307     0.09280
H1305       H  0.19245432  0.98543574  0.96589536     0.07300
Br1306     Br  0.26457144  0.00707014  0.95625642    -0.03310
C1307       C  0.36205474  0.01158182  0.90299343    -0.09950
C1308       C  0.37364793  0.97602865  0.90246923     0.06250
C1309       C  0.34807646  0.94692132  0.90492768    -0.03710
C1310       C  0.31251755  0.95376186  0.90210059    -0.08160
C1311       C  0.30150963  0.98769357  0.89026205     0.05370
C1312       C  0.32651994  0.01770361  0.89768407    -0.03190
Br1313     Br  0.31475688  0.06718390  0.90407714    -0.02880
H1314       H  0.38075611  0.03523683  0.90647464     0.09280
H1315       H  0.29404697  0.93143352  0.90729650     0.07300
Br1316     Br  0.35928559  0.89742774  0.91010646    -0.03310
C1317       C  0.16293871  0.52969874  0.58874500    -0.09950
C1318       C  0.15708091  0.54047022  0.55405293     0.06250
C1319       C  0.18410323  0.53789145  0.52991341    -0.03710
C1320       C  0.21515129  0.52155060  0.53978121    -0.08160
C1321       C  0.22150032  0.50989027  0.57485785     0.05370
C1322       C  0.19314339  0.51314692  0.59914125    -0.03190
Br1323     Br  0.19067568  0.49515427  0.64726603    -0.02880
H1324       H  0.14199949  0.53109249  0.60716014     0.09280
H1325       H  0.23550872  0.02099224  0.52091085     0.07300
Br1326     Br  0.17939564  0.05888108  0.98371618    -0.03310
C1327       C  0.32815234  0.98598259  0.51497021    -0.09950
C1328       C  0.35580747  0.51338652  0.52200788     0.06250
C1329       C  0.35263079  0.53642658  0.55169195    -0.03710
C1330       C  0.32283856  0.53277862  0.57252600    -0.08160
C1331       C  0.29269434  0.50789029  0.56407440     0.05370
C1332       C  0.29729195  0.48299235  0.53533580    -0.03190
Br1333     Br  0.26461447  0.94182029  0.52407560    -0.02880
H1334       H  0.33120848  0.96569041  0.99431883     0.09280
H1335       H  0.32426465  0.55002469  0.59620602     0.07300
Br1336     Br  0.39029407  0.57174992  0.56730603    -0.03310
C1337       C  0.42280097  0.64333357  0.49878964    -0.09950
C1338       C  0.45758548  0.65207337  0.99043840     0.06250
C1339       C  0.46836420  0.68771269  0.98117013    -0.03710
C1340       C  0.44450642  0.71463706  0.98264156    -0.08160
C1341       C  0.40855155  0.70578071  0.98962690     0.05370
C1342       C  0.39801672  0.66831508  0.49591155    -0.03190
Br1343     Br  0.35034213  0.64636709  0.49788001    -0.03260
H1344       H  0.41395000  0.61532591  0.50406776     0.09280
H1345       H  0.45459375  0.74221155  0.97811918     0.07300
Br1346     Br  0.01370458  0.70009670  0.96322159    -0.03310
C1347       C  0.39849297  0.79911285  0.52511844    -0.09950
C1348       C  0.39885823  0.77552582  0.99434718     0.06250
C1349       C  0.41213397  0.79196207  0.96314550    -0.03710
C1350       C  0.42374706  0.82874758  0.96346796    -0.08160
C1351       C  0.42505079  0.85143913  0.49446795     0.05370
C1352       C  0.41227347  0.83577474  0.52573924    -0.03190
Br1353     Br  0.91313342  0.86220531  0.57038006    -0.02880
H1354       H  0.38705895  0.78982830  0.54944560     0.09280
H1355       H  0.43266829  0.83931926  0.93838337     0.07300
Br1356     Br  0.41610108  0.76737603  0.91781163    -0.03310
C1357       C  0.12323936  0.66341963  0.92409105    -0.09950
C1358       C  0.10486723  0.64925386  0.95297324     0.06250
C1359       C  0.09887727  0.67427155  0.98112191    -0.03710
C1360       C  0.10999570  0.71074654  0.97893586    -0.08160
C1361       C  0.13339334  0.72483616  0.95394614     0.05370
C1362       C  0.13663148  0.70053975  0.92356384    -0.03190
Br1363     Br  0.14775016  0.71484958  0.87600035    -0.02880
H1364       H  0.12593056  0.64588069  0.90104035     0.09280
H1365       H  0.09717344  0.72864512  0.99591360     0.07300
Br1366     Br  0.07472067  0.66391688  0.52477670    -0.03310
C1367       C  0.06562700  0.81924547  0.94450715    -0.09950
C1368       C  0.07657528  0.85154147  0.96324181     0.06250
C1369       C  0.10953078  0.85368661  0.98272049    -0.03710
C1370       C  0.12883550  0.82386322  0.98519558    -0.08160
C1371       C  0.11938424  0.79121017  0.96595168     0.05370
C1372       C  0.08712591  0.78988124  0.94420516    -0.03190
Br1373     Br  0.07232371  0.75345693  0.90833024    -0.02880
H1374       H  0.04117064  0.81754949  0.92848322     0.09280
H1375       H  0.15405063  0.82853630  0.99942169     0.07300
Br1376     Br  0.13444255  0.89747669  0.00323344    -0.03310
C1377       C  0.00718882  0.60492934  0.62763968    -0.09950
C1378       C  0.99836801  0.56711573  0.62606778     0.06250
C1379       C  0.99354197  0.54940709  0.65866587    -0.03710
C1380       C  0.49696242  0.56944503  0.69133618    -0.08160
C1381       C  0.00311931  0.60798836  0.69277602     0.05370
C1382       C  0.01027785  0.62498230  0.65976904    -0.03190
Br1383     Br  0.01991872  0.67651762  0.65491536    -0.02880
H1384       H  0.01150416  0.61959139  0.60321494     0.09280
H1385       H  0.49508274  0.55423790  0.71558811     0.07300
Br1386     Br  0.48442464  0.99787652  0.66055131    -0.03310
C1387       C  0.46325104  0.57700007  0.80678316    -0.09950
C1388       C  0.98724183  0.58907552  0.83453186     0.06250
C1389       C  0.01720162  0.61111300  0.82698871    -0.03710
C1390       C  0.02632561  0.61538820  0.79230863    -0.08160
C1391       C  0.00163823  0.60728711  0.76309875     0.05370
C1392       C  0.46900297  0.58763019  0.77154379    -0.03190
Br1393     Br  0.42952219  0.57655087  0.73845412    -0.02880
H1394       H  0.44011774  0.55937487  0.81251934     0.09280
H1395       H  0.05160186  0.63012980  0.79024339     0.07300
Br1396     Br  0.04749979  0.63566927  0.86386770    -0.03310
C1397       C  0.42232877  0.68564737  0.71322405    -0.09950
C1398       C  0.41746629  0.69815534  0.74792831     0.06250
C1399       C  0.44278702  0.69296994  0.77468778    -0.03710
C1400       C  0.47164031  0.67380662  0.76648805    -0.08160
C1401       C  0.47577177  0.65740542  0.73203470     0.05370
C1402       C  0.44804128  0.66236547  0.70577743    -0.03190
Br1403     Br  0.43336818  0.63390978  0.66308707    -0.02880
H1404       H  0.40228953  0.68974712  0.69252629     0.09280
H1405       H  0.49089340  0.67125211  0.78805152     0.07300
Br1406     Br  0.43799444  0.70915318  0.82300493    -0.03310
C1407       C  0.07202700  0.62560010  0.72597595    -0.09950
C1408       C  0.04501124  0.64959296  0.73088681     0.06250
C1409       C  0.05670615  0.68533027  0.74495957    -0.03710
C1410       C  0.09253875  0.69409543  0.75498867    -0.08160
C1411       C  0.11825438  0.66988052  0.74948453     0.05370
C1412       C  0.10764370  0.63553512  0.73445636    -0.03190
Br1413     Br  0.14139798  0.60118495  0.72466969    -0.02880
H1414       H  0.06533488  0.59784046  0.71677310     0.09280
H1415       H  0.10099817  0.72156664  0.76427435     0.07300
Br1416     Br  0.02935085  0.72678288  0.74837389    -0.03310
C1417       C  0.00593658  0.13081569  0.22880183    -0.03280
O1418       O  0.96331625  0.06658364  0.38846976    -0.87280
O1419       O  0.61925386  0.46744336  0.45922480    -0.87440
O1420       O  0.58303315  0.08891102  0.42541372    -0.89110
O1421       O  0.54836800  0.48352649  0.36201863    -0.87870
O1422       O  0.50939587  0.43385654  0.37145741    -0.87460
O1423       O  0.57935513  0.10198635  0.48456704    -0.88830
O1424       O  0.61103626  0.50580151  0.41256897    -0.87310
O1425       O  0.51958695  0.05704817  0.37307854    -0.86890
Zr1426     Zr  0.55254069  0.02517639  0.41579810     2.84310
O1427       O  0.54884904  0.46582773  0.43772330    -1.08870
O1428       O  0.51723276  0.06006326  0.44989354    -1.09600
C1429       C  0.48941952  0.06962147  0.36764300     1.05830
C1430       C  0.62910605  0.48360518  0.43020792     1.05770
C1431       C  0.58870311  0.11054192  0.45359452     1.08750
C1432       C  0.53131829  0.45257279  0.35226136     1.06530
H1433       H  0.59658709  0.03541694  0.47531890     0.32090
O1434       O  0.57234115  0.02561500  0.47503883    -1.29820
H1435       H  0.98814142  0.49807896  0.38654334     0.31770
O1436       O  0.49465133  0.49947127  0.41170611    -1.31500
O1437       O  0.56010240  0.44654288  0.06003297    -0.87270
O1438       O  0.90164688  0.02741995  0.47853363    -0.88770
O1439       O  0.59860698  0.05839098  0.03780492    -0.87350
O1440       O  0.53120750  0.38960908  0.43924895    -0.87400
O1441       O  0.92749559  0.44387919  0.41185848    -0.87110
O1442       O  0.50372763  0.11366615  0.00347591    -0.86920
O1443       O  0.97907574  0.01955019  0.08038098    -0.87290
O1444       O  0.94365329  0.41434474  0.01711986    -0.86750
O1445       O  0.52226257  0.06465103  0.07015889    -0.87810
O1446       O  0.95670319  0.39421000  0.46153789    -0.86970
O1447       O  0.61410663  0.50002880  0.03040359    -0.87370
O1448       O  0.96049600  0.09864275  0.45979614    -0.87090
O1449       O  0.93027544  0.50177619  0.39589904    -0.86740
O1450       O  0.56346753  0.40412730  0.49064095    -0.87150
O1451       O  0.50204497  0.45139291  0.07090123    -0.87450
O1452       O  0.91186220  0.49211834  0.02710138    -0.88790
Zr1453     Zr  0.56716736  0.46755108  0.49793153     2.83100
Zr1454     Zr  0.95834386  0.03546822  0.44492177     2.83500
Zr1455     Zr  0.53804376  0.06032716  0.00945178     2.84090
Zr1456     Zr  0.49070046  0.43997391  0.43233152     2.83360
Zr1457     Zr  0.97248542  0.47870768  0.02516403     2.84220
O1458       O  0.95448209  0.47608448  0.46523136    -1.09360
O1459       O  0.53181196  0.50228268  0.03137241    -1.08860
C1460       C  0.53283286  0.44298206  0.07969018     1.05800
C1461       C  0.89172255  0.01054742  0.00739345     1.08420
C1462       C  0.62064474  0.03327733  0.04018200     1.05980
C1463       C  0.55513021  0.38333988  0.46381844     1.06340
C1464       C  0.91230483  0.47260653  0.40226147     1.05920
C1465       C  0.97675150  0.12038492  0.48326512     1.05470
C1466       C  0.49969420  0.04845256  0.09016693     1.05900
C1467       C  0.94241699  0.38946848  0.99156013     1.05410
H1468       H  0.96381272  0.05319847  0.01850395     0.32090
O1469       O  0.97805987  0.03810108  0.00476245    -1.30460
H1470       H  0.50714985  0.41926713  0.00336276     0.32110
O1471       O  0.50874064  0.44297712  0.49292571    -1.31840
C1472       C  0.76000475  0.00583246  0.08993125    -0.03280
O1473       O  0.67596783  0.19088038  0.27525069    -0.87280
O1474       O  0.75825876  0.28036285  0.11559532    -0.87440
O1475       O  0.66240142  0.26488235  0.18920848    -0.89110
O1476       O  0.71734312  0.16135371  0.16356919    -0.87870
O1477       O  0.76813270  0.14053895  0.18768137    -0.87460
O1478       O  0.67983601  0.31642123  0.22278362    -0.88830
O1479       O  0.71123873  0.23985078  0.12581572    -0.87310
O1480       O  0.66292202  0.19284190  0.21481420    -0.86890
Zr1481     Zr  0.71181869  0.22466919  0.18810586     2.84310
O1482       O  0.77057478  0.22391631  0.17454670    -1.08870
O1483       O  0.71161589  0.25345893  0.24388360    -1.09600
C1484       C  0.65507798  0.18510125  0.24688517     1.05830
C1485       C  0.72825448  0.26231983  0.10570820     1.05770
C1486       C  0.65706001  0.29621729  0.20361801     1.08750
C1487       C  0.73959679  0.13658694  0.16875780     1.06530
H1488       H  0.72574460  0.29878586  0.17041329     0.32090
O1489       O  0.73844414  0.28456982  0.18718850    -1.29820
H1490       H  0.72764136  0.16633371  0.23245500     0.31770
O1491       O  0.73932170  0.19048702  0.23141840    -1.31500
O1492       O  0.86092686  0.30808152  0.18447723    -0.87270
O1493       O  0.77273792  0.22296094  0.34442981    -0.88770
O1494       O  0.74774504  0.36311462  0.19996668    -0.87350
O1495       O  0.82286526  0.18715246  0.15711308    -0.87400
O1496       O  0.78890884  0.13845600  0.26023671    -0.87110
O1497       O  0.71687589  0.31723392  0.30459972    -0.86920
O1498       O  0.81964738  0.33465116  0.30111000    -0.87290
O1499       O  0.87705820  0.23878678  0.27061173    -0.86750
O1500       O  0.78574043  0.35802606  0.25818712    -0.87810
O1501       O  0.85777537  0.18653587  0.23908408    -0.86970
O1502       O  0.78939594  0.34736913  0.16136753    -0.87370
O1503       O  0.70116277  0.25776915  0.31740931    -0.87090
O1504       O  0.74957730  0.15589654  0.30016074    -0.86740
O1505       O  0.82400472  0.24447893  0.13363504    -0.87150
O1506       O  0.87289535  0.30414996  0.24471789    -0.87450
O1507       O  0.82515302  0.25640930  0.33552666    -0.88790
Zr1508     Zr  0.79737686  0.28369789  0.17242662     2.83100
Zr1509     Zr  0.73766956  0.21833776  0.28723767     2.83500
Zr1510     Zr  0.73916489  0.31268206  0.24347277     2.84090
Zr1511     Zr  0.79839367  0.18952997  0.21781457     2.83360
Zr1512     Zr  0.82504085  0.27404802  0.27298003     2.84220
O1513       O  0.79710742  0.21532740  0.27465529    -1.09360
O1514       O  0.79764572  0.30922903  0.22979067    -1.08860
C1515       C  0.88174264  0.31248195  0.21325220     1.05800
C1516       C  0.80334945  0.23816640  0.35529027     1.08420
C1517       C  0.76851561  0.36990308  0.17364969     1.05980
C1518       C  0.82865073  0.21059871  0.13205320     1.06340
C1519       C  0.76912723  0.13230249  0.28733300     1.05920
C1520       C  0.70613118  0.29166547  0.32596291     1.05470
C1521       C  0.80246360  0.36061992  0.28818476     1.05900
C1522       C  0.88191700  0.20838121  0.25452769     1.05410
H1523       H  0.76861855  0.28787328  0.31028350     0.32090
O1524       O  0.76675130  0.27711453  0.28659595    -1.30460
H1525       H  0.84871210  0.24599570  0.20762689     0.32110
O1526       O  0.82513723  0.24822974  0.21522067    -1.31840
C1527       C  0.64992784  0.26562068  0.46155462    -0.03280
C1528       C  0.52962819  0.37282364  0.21336824    -0.03280
C1529       C  0.88166648  0.23505824  0.49379586    -0.03280
C1530       C  0.76748694  0.48930364  0.36505062    -0.03280
C1531       C  0.71771056  0.27501486  0.38773661    -0.09950
C1532       C  0.70188394  0.29867761  0.36412478     0.06250
C1533       C  0.67503185  0.31827673  0.37605049    -0.03710
C1534       C  0.66087659  0.30996273  0.40880779    -0.08160
C1535       C  0.67155387  0.28024223  0.42975413     0.05370
C1536       C  0.70230983  0.26437295  0.41939392    -0.03190
Br1537     Br  0.72218531  0.22468594  0.44378531    -0.02880
H1538       H  0.73936833  0.26074207  0.37916243     0.09280
H1539       H  0.63985863  0.32613215  0.41571156     0.07300
Br1540     Br  0.65449028  0.35387574  0.34712172    -0.03310
C1541       C  0.72735019  0.28065257  0.03946263    -0.09950
C1542       C  0.71000129  0.26675659  0.06931277     0.06250
C1543       C  0.67313191  0.25851977  0.06443004    -0.03710
C1544       C  0.65625602  0.25925720  0.03069428    -0.08160
C1545       C  0.67352494  0.26761456  0.99886791     0.05370
C1546       C  0.70911622  0.28389649  0.00568445    -0.03190
Br1547     Br  0.73100836  0.32136498  0.47701084    -0.02880
H1548       H  0.75457480  0.29149412  0.04302262     0.09280
H1549       H  0.62824320  0.25798187  0.03117713     0.07300
Br1550     Br  0.64155246  0.25091144  0.10293255    -0.03310
C1551       C  0.85609251  0.20439396  0.43318937    -0.09950
C1552       C  0.85353264  0.23099571  0.46098352     0.06250
C1553       C  0.82841855  0.25703082  0.45397487    -0.03710
C1554       C  0.81083370  0.25823304  0.42005399    -0.08160
C1555       C  0.81590060  0.23284992  0.39275342     0.05370
C1556       C  0.83755534  0.20497558  0.40026025    -0.03190
Br1557     Br  0.84552644  0.16874888  0.36462223    -0.02880
H1558       H  0.87465463  0.18400522  0.43481855     0.09280
H1559       H  0.79413436  0.28003278  0.41460949     0.07300
Br1560     Br  0.81855664  0.29392052  0.48801326    -0.03310
C1561       C  0.87718046  0.20822319  0.09363670    -0.09950
C1562       C  0.84124747  0.20055348  0.09737201     0.06250
C1563       C  0.81818854  0.20354717  0.06732825    -0.03710
C1564       C  0.83072465  0.21663363  0.03511525    -0.08160
C1565       C  0.86688757  0.22597301  0.03114723     0.05370
C1566       C  0.89016144  0.22169845  0.06186772    -0.03190
Br1567     Br  0.94012063  0.23573963  0.06485747    -0.02880
H1568       H  0.89494569  0.20793916  0.11702925     0.09280
H1569       H  0.81186892  0.21813169  0.01296355     0.07300
Br1570     Br  0.76843390  0.19330710  0.07005062    -0.03310
C1571       C  0.78138057  0.45612670  0.30655164    -0.09950
C1572       C  0.76673560  0.45406104  0.34022493     0.06250
C1573       C  0.75888793  0.41763408  0.35277978    -0.03710
C1574       C  0.77493343  0.38852848  0.33787872    -0.08160
C1575       C  0.79626393  0.39332401  0.30886013     0.05370
C1576       C  0.79824699  0.42729933  0.29242646    -0.03190
Br1577     Br  0.82470176  0.43613787  0.25096293    -0.02880
H1578       H  0.78127033  0.48045754  0.29127982     0.09280
H1579       H  0.76940396  0.36145231  0.34811798     0.07300
Br1580     Br  0.72918621  0.40316586  0.39152211    -0.03310
C1581       C  0.74141737  0.05022358  0.34496894    -0.09950
C1582       C  0.76907626  0.02658444  0.34274471     0.06250
C1583       C  0.79786168  0.04049715  0.32144950    -0.03710
C1584       C  0.79679828  0.07389797  0.30337528    -0.08160
C1585       C  0.76846713  0.09582537  0.30552053     0.05370
C1586       C  0.74030328  0.08285902  0.32646199    -0.03190
Br1587     Br  0.69764145  0.10703118  0.33064728    -0.02880
H1588       H  0.71971523  0.04461502  0.36197214     0.09280
H1589       H  0.81908916  0.08333043  0.28806477     0.07300
Br1590     Br  0.84175421  0.01850670  0.31621226    -0.03310
C1591       C  0.94063614  0.31623612  0.18456540    -0.09950
C1592       C  0.91965734  0.32604065  0.21244823     0.06250
C1593       C  0.93690741  0.34331815  0.24330544    -0.03710
C1594       C  0.97323775  0.35116823  0.24517296    -0.08160
C1595       C  0.99374630  0.34821216  0.21500185     0.05370
C1596       C  0.97712825  0.32710038  0.18523340    -0.03190
Br1597     Br  0.00034106  0.31522625  0.14238301    -0.02880
H1598       H  0.92848614  0.30088013  0.16171300     0.09280
H1599       H  0.98434670  0.36282857  0.27015887     0.07300
Br1600     Br  0.91278290  0.36106030  0.28355650    -0.03310
C1601       C  0.62325815  0.35006434  0.19732209    -0.09950
C1602       C  0.62280581  0.31212551  0.19884660     0.06250
C1603       C  0.58975363  0.29208727  0.19827415    -0.03710
C1604       C  0.55931130  0.31052023  0.20474084    -0.08160
C1605       C  0.56082248  0.34919992  0.20339705     0.05370
C1606       C  0.59198519  0.36503481  0.18867933    -0.03190
Br1607     Br  0.59087586  0.36671885  0.13719390    -0.02880
H1608       H  0.64785645  0.36611769  0.19338561     0.09280
H1609       H  0.53502439  0.29470928  0.20969989     0.07300
Br1610     Br  0.58534256  0.24260320  0.18233354    -0.03310
C1611       C  0.79272184  0.46246969  0.13079538    -0.09950
C1612       C  0.76131238  0.46895396  0.11116337     0.06250
C1613       C  0.73414977  0.43909688  0.11028659    -0.03710
C1614       C  0.73614947  0.41007640  0.13391204    -0.08160
C1615       C  0.76684084  0.40493339  0.15409598     0.05370
C1616       C  0.79636668  0.42999497  0.14961374    -0.03190
Br1617     Br  0.84305785  0.41932855  0.16463797    -0.02880
H1618       H  0.81538397  0.48208523  0.13004471     0.09280
H1619       H  0.71438969  0.38921973  0.13408111     0.07300
Br1620     Br  0.69406670  0.43102098  0.07688061    -0.03310
C1621       C  0.76037862  0.04163085  0.15002116    -0.09950
C1622       C  0.76320124  0.04201971  0.11279568     0.06250
C1623       C  0.75850645  0.07616118  0.09565328    -0.03710
C1624       C  0.74324096  0.10376106  0.11350608    -0.08160
C1625       C  0.73698846  0.10163312  0.14952398     0.05370
C1626       C  0.74615249  0.07033319  0.16795746    -0.03190
Br1627     Br  0.73881629  0.06541252  0.21799467    -0.02880
H1628       H  0.76525212  0.01758454  0.16485141     0.09280
H1629       H  0.73911622  0.12868168  0.09982742     0.07300
Br1630     Br  0.77045036  0.08862156  0.04754532    -0.03310
C1631       C  0.55409884  0.42744756  0.17727033    -0.09950
C1632       C  0.52606738  0.40106068  0.18360587     0.06250
C1633       C  0.49663208  0.40063733  0.15979228    -0.03710
C1634       C  0.50237300  0.40831696  0.12477431    -0.08160
C1635       C  0.53366573  0.42814323  0.11542168     0.05370
C1636       C  0.55771809  0.44144437  0.14299492    -0.03190
Br1637     Br  0.59586949  0.47651040  0.13505124    -0.02880
H1638       H  0.57490428  0.43406407  0.19750676     0.09280
H1639       H  0.98029199  0.40301039  0.10569244     0.07300
Br1640     Br  0.94933350  0.40520889  0.17445959    -0.03310
C1641       C  0.51571651  0.42650504  0.25412728    -0.09950
C1642       C  0.53678128  0.39665166  0.24912364     0.06250
C1643       C  0.55807954  0.38782085  0.27955390    -0.03710
C1644       C  0.55762335  0.40790634  0.31202693    -0.08160
C1645       C  0.53623919  0.43683560  0.31604105     0.05370
C1646       C  0.51501991  0.44577064  0.28663674    -0.03190
Br1647     Br  0.98137486  0.48144912  0.29081758    -0.02880
H1648       H  0.99743959  0.43373258  0.23315116     0.09280
H1649       H  0.57291422  0.39963278  0.33507747     0.07300
Br1650     Br  0.58574942  0.34690361  0.28192249    -0.03310
C1651       C  0.70082588  0.47803108  0.36379180    -0.09950
C1652       C  0.73220811  0.48549618  0.38522247     0.06250
C1653       C  0.72820761  0.48887097  0.42279868    -0.03710
C1654       C  0.69474425  0.48293734  0.43731140    -0.08160
C1655       C  0.66399483  0.47794883  0.41537694     0.05370
C1656       C  0.66758352  0.47503835  0.37814636    -0.03190
Br1657     Br  0.62813664  0.46734938  0.34469116    -0.02880
H1658       H  0.70220216  0.47575512  0.33503186     0.09280
H1659       H  0.69250549  0.48546435  0.46591384     0.07300
Br1660     Br  0.76461962  0.50710859  0.45625569    -0.03310
C1661       C  0.86209947  0.51158535  0.40297756    -0.09950
C1662       C  0.87369110  0.47603153  0.40245850     0.06250
C1663       C  0.84811842  0.44692596  0.40492191    -0.03710
C1664       C  0.81255941  0.45376852  0.40210111    -0.08160
C1665       C  0.80155041  0.48769949  0.39026143     0.05370
C1666       C  0.82656455  0.51770886  0.39767296    -0.03190
Br1667     Br  0.81480874  0.56719247  0.40405944    -0.02880
H1668       H  0.88080204  0.53523993  0.40645343     0.09280
H1669       H  0.79408883  0.43144172  0.40730213     0.07300
Br1670     Br  0.85932616  0.39743159  0.41009848    -0.03310
C1671       C  0.66290618  0.02969170  0.08873462    -0.09950
C1672       C  0.65705085  0.04045772  0.05404034     0.06250
C1673       C  0.68407526  0.03787657  0.02990394    -0.03710
C1674       C  0.71512355  0.02153930  0.03977763    -0.08160
C1675       C  0.72147023  0.00988444  0.07485657     0.05370
C1676       C  0.69311117  0.01314306  0.09913655    -0.03190
Br1677     Br  0.69064256  0.99515729  0.14726362    -0.02880
H1678       H  0.64196603  0.03108937  0.10714788     0.09280
H1679       H  0.73553417  0.52100354  0.02091153     0.07300
Br1680     Br  0.67941965  0.55890059  0.48372813    -0.03310
C1681       C  0.82818151  0.48598463  0.01496473    -0.09950
C1682       C  0.85577675  0.01338640  0.02201215     0.06250
C1683       C  0.85259877  0.03642787  0.05169490    -0.03710
C1684       C  0.82280605  0.03278004  0.07252820    -0.08160
C1685       C  0.79266383  0.00788866  0.06407809     0.05370
C1686       C  0.79726355  0.98298865  0.03534201    -0.03190
Br1687     Br  0.76463752  0.44183039  0.02406234    -0.02880
H1688       H  0.83123609  0.46569358  0.49431182     0.09280
H1689       H  0.82423055  0.05002792  0.09620689     0.07300
Br1690     Br  0.89026075  0.07175266  0.06730874    -0.03310
C1691       C  0.92278669  0.14334350  0.99879927    -0.09950
C1692       C  0.95756957  0.15207697  0.49043987     0.06250
C1693       C  0.96835197  0.18771408  0.48116725    -0.03710
C1694       C  0.94449940  0.21464290  0.48264266    -0.08160
C1695       C  0.90854486  0.20579219  0.48963231     0.05370
C1696       C  0.89800585  0.16832805  0.99592079    -0.03190
Br1697     Br  0.85032973  0.14638393  0.99788939    -0.03260
H1698       H  0.91393305  0.11533746  0.00408140     0.09280
H1699       H  0.95458985  0.24221565  0.47811714     0.07300
Br1700     Br  0.51368798  0.20008873  0.46320421    -0.03310
C1701       C  0.89849685  0.29912906  0.02511668    -0.09950
C1702       C  0.89885986  0.27553983  0.49434691     0.06250
C1703       C  0.91214007  0.29197231  0.46314508    -0.03710
C1704       C  0.92376439  0.32875528  0.46346782    -0.08160
C1705       C  0.92507197  0.35144756  0.99446740     0.05370
C1706       C  0.91228664  0.33578783  0.02573753    -0.03190
Br1707     Br  0.41314883  0.36222027  0.07037753    -0.02880
H1708       H  0.88705843  0.28984820  0.04944302     0.09280
H1709       H  0.93269052  0.33932452  0.43838407     0.07300
Br1710     Br  0.91609929  0.26738396  0.41781103    -0.03310
C1711       C  0.62322263  0.16340309  0.42407993    -0.09950
C1712       C  0.60484533  0.14924021  0.45296038     0.06250
C1713       C  0.59885726  0.17425925  0.48110819    -0.03710
C1714       C  0.60998180  0.21073261  0.47892279    -0.08160
C1715       C  0.63338788  0.22481741  0.45393832     0.05370
C1716       C  0.63662381  0.20052095  0.42355561    -0.03190
Br1717     Br  0.64775174  0.21483105  0.37599468    -0.02880
H1718       H  0.62591182  0.14586392  0.40102891     0.09280
H1719       H  0.59715701  0.22863488  0.49589528     0.07300
Br1720     Br  0.57469622  0.16390866  0.02476098    -0.03310
C1721       C  0.56564112  0.31924257  0.44451814    -0.09950
C1722       C  0.57659742  0.35153487  0.46325579     0.06250
C1723       C  0.60955198  0.35366943  0.48273541    -0.03710
C1724       C  0.62884767  0.32383977  0.48520835    -0.08160
C1725       C  0.61939115  0.29119232  0.46595695     0.05370
C1726       C  0.58713308  0.28987313  0.44421115    -0.03190
Br1727     Br  0.57232586  0.25345790  0.40832851    -0.02880
H1728       H  0.54118564  0.31755480  0.42849312     0.09280
H1729       H  0.65406190  0.32850525  0.49943695     0.07300
Br1730     Br  0.63447885  0.39745260  0.50324663    -0.03310
C1731       C  0.50719150  0.10492214  0.12764180    -0.09950
C1732       C  0.49836033  0.06710991  0.12606817     0.06250
C1733       C  0.49353255  0.04940161  0.15866642    -0.03710
C1734       C  0.99695888  0.06943904  0.19133740    -0.08160
C1735       C  0.50312094  0.10798210  0.19277807     0.05370
C1736       C  0.51028476  0.12497451  0.15977178    -0.03190
Br1737     Br  0.51993451  0.17650861  0.15491900    -0.02880
H1738       H  0.51150959  0.11958445  0.10321773     0.09280
H1739       H  0.99507689  0.05423189  0.21558919     0.07300
Br1740     Br  0.98444683  0.49788100  0.16055151    -0.03310
C1741       C  0.96322243  0.07699829  0.30677373    -0.09950
C1742       C  0.48720219  0.08907945  0.33452964     0.06250
C1743       C  0.51716291  0.11111973  0.32699470    -0.03710
C1744       C  0.52630163  0.11538822  0.29231776    -0.08160
C1745       C  0.50162458  0.10728266  0.26310000     0.05370
C1746       C  0.96898558  0.08762658  0.27153594    -0.03190
Br1747     Br  0.92951233  0.07654798  0.23843664    -0.02880
H1748       H  0.94008846  0.05937103  0.31250331     0.09280
H1749       H  0.55157813  0.13013174  0.29025930     0.07300
Br1750     Br  0.54744524  0.13568164  0.36388277    -0.03310
C1751       C  0.92232502  0.18563949  0.21322030    -0.09950
C1752       C  0.91746231  0.19814781  0.24792429     0.06250
C1753       C  0.94278478  0.19296798  0.27468318    -0.03710
C1754       C  0.97163940  0.17380741  0.26648382    -0.08160
C1755       C  0.97577086  0.15740308  0.23203178     0.05370
C1756       C  0.94804132  0.16236222  0.20577308    -0.03190
Br1757     Br  0.93337672  0.13391382  0.16307632    -0.02880
H1758       H  0.90228507  0.18973742  0.19252270     0.09280
H1759       H  0.99089372  0.17125782  0.28804689     0.07300
Br1760     Br  0.93799261  0.20915385  0.32299974    -0.03310
C1761       C  0.57202570  0.12559090  0.22599646    -0.09950
C1762       C  0.54500960  0.14958534  0.23089672     0.06250
C1763       C  0.55670358  0.18532721  0.24495875    -0.03710
C1764       C  0.59253578  0.19409588  0.25498714    -0.08160
C1765       C  0.61825263  0.16988032  0.24949160     0.05370
C1766       C  0.60764275  0.13552983  0.23447409    -0.03190
Br1767     Br  0.64139850  0.10117917  0.22469556    -0.02880
H1768       H  0.56533337  0.09782896  0.21680060     0.09280
H1769       H  0.60099414  0.22156977  0.26426542     0.07300
Br1770     Br  0.52934787  0.22678080  0.24836141    -0.03310
C1771       C  0.00593658  0.13081568  0.72880183    -0.03280
O1772       O  0.96331625  0.06658364  0.88846977    -0.87280
O1773       O  0.61925387  0.46744338  0.95922480    -0.87440
O1774       O  0.58303315  0.08891103  0.92541372    -0.89110
O1775       O  0.54836802  0.48352648  0.86201863    -0.87870
O1776       O  0.50939587  0.43385655  0.87145741    -0.87460
O1777       O  0.57935516  0.10198634  0.98456705    -0.88830
O1778       O  0.61103627  0.50580153  0.91256897    -0.87310
O1779       O  0.51958695  0.05704816  0.87307854    -0.86890
Zr1780     Zr  0.55254069  0.02517640  0.91579810     2.84310
O1781       O  0.54884905  0.46582773  0.93772329    -1.08870
O1782       O  0.51723277  0.06006327  0.94989354    -1.09600
C1783       C  0.48941952  0.06962146  0.86764300     1.05830
C1784       C  0.62910607  0.48360520  0.93020792     1.05770
C1785       C  0.58870312  0.11054192  0.95359452     1.08750
C1786       C  0.53131830  0.45257279  0.85226135     1.06530
H1787       H  0.59658710  0.03541694  0.97531889     0.32090
O1788       O  0.57234116  0.02561500  0.97503883    -1.29820
H1789       H  0.98814143  0.49807896  0.88654334     0.31770
O1790       O  0.49465134  0.49947127  0.91170611    -1.31500
O1791       O  0.56010238  0.44654288  0.56003298    -0.87270
O1792       O  0.90164689  0.02741995  0.97853364    -0.88770
O1793       O  0.59860696  0.05839097  0.53780493    -0.87350
O1794       O  0.53120751  0.38960909  0.93924895    -0.87400
O1795       O  0.92749560  0.44387918  0.91185849    -0.87110
O1796       O  0.50372762  0.11366614  0.50347590    -0.86920
O1797       O  0.97907573  0.01955019  0.58038098    -0.87290
O1798       O  0.94365327  0.41434474  0.51711986    -0.86750
O1799       O  0.52226255  0.06465103  0.57015889    -0.87810
O1800       O  0.95670321  0.39421000  0.96153790    -0.86970
O1801       O  0.61410661  0.50002879  0.53040359    -0.87370
O1802       O  0.96049601  0.09864275  0.95979615    -0.87090
O1803       O  0.93027546  0.50177618  0.89589905    -0.86740
O1804       O  0.56346755  0.40412731  0.99064095    -0.87150
O1805       O  0.50204495  0.45139291  0.57090123    -0.87450
O1806       O  0.91186219  0.49211834  0.52710137    -0.88790
Zr1807     Zr  0.56716738  0.46755109  0.99793152     2.83100
Zr1808     Zr  0.95834387  0.03546821  0.94492178     2.83500
Zr1809     Zr  0.53804374  0.06032716  0.50945178     2.84090
Zr1810     Zr  0.49070047  0.43997391  0.93233153     2.83360
Zr1811     Zr  0.97248541  0.47870768  0.52516403     2.84220
O1812       O  0.95448210  0.47608448  0.96523136    -1.09360
O1813       O  0.53181195  0.50228268  0.53137242    -1.08860
C1814       C  0.53283283  0.44298207  0.57969018     1.05800
C1815       C  0.89172253  0.01054742  0.50739343     1.08420
C1816       C  0.62064472  0.03327733  0.54018201     1.05980
C1817       C  0.55513023  0.38333989  0.96381843     1.06340
C1818       C  0.91230484  0.47260652  0.90226147     1.05920
C1819       C  0.97675151  0.12038492  0.98326513     1.05470
C1820       C  0.49969419  0.04845255  0.59016693     1.05900
C1821       C  0.94241697  0.38946848  0.49156013     1.05410
H1822       H  0.96381271  0.05319847  0.51850395     0.32090
O1823       O  0.97805985  0.03810108  0.50476245    -1.30460
H1824       H  0.50714983  0.41926713  0.50336276     0.32110
O1825       O  0.50874066  0.44297713  0.99292571    -1.31840
C1826       C  0.76000474  0.00583245  0.58993124    -0.03280
O1827       O  0.67596783  0.19088037  0.77525069    -0.87280
O1828       O  0.75825876  0.28036285  0.61559532    -0.87440
O1829       O  0.66240143  0.26488235  0.68920844    -0.89110
O1830       O  0.71734313  0.16135371  0.66356918    -0.87870
O1831       O  0.76813271  0.14053894  0.68768137    -0.87460
O1832       O  0.67983601  0.31642124  0.72278358    -0.88830
O1833       O  0.71123874  0.23985077  0.62581571    -0.87310
O1834       O  0.66292203  0.19284190  0.71481420    -0.86890
Zr1835     Zr  0.71181869  0.22466919  0.68810586     2.84310
O1836       O  0.77057479  0.22391631  0.67454670    -1.08870
O1837       O  0.71161588  0.25345892  0.74388360    -1.09600
C1838       C  0.65507798  0.18510124  0.74688517     1.05830
C1839       C  0.72825449  0.26231983  0.60570820     1.05770
C1840       C  0.65706002  0.29621730  0.70361797     1.08750
C1841       C  0.73959679  0.13658693  0.66875779     1.06530
H1842       H  0.72574461  0.29878586  0.67041329     0.32090
O1843       O  0.73844415  0.28456981  0.68718850    -1.29820
H1844       H  0.72764137  0.16633370  0.73245500     0.31770
O1845       O  0.73932170  0.19048701  0.73141839    -1.31500
O1846       O  0.86092687  0.30808150  0.68447723    -0.87270
O1847       O  0.77273793  0.22296093  0.84442981    -0.88770
O1848       O  0.74774504  0.36311462  0.69996668    -0.87350
O1849       O  0.82286526  0.18715246  0.65711308    -0.87400
O1850       O  0.78890884  0.13845599  0.76023671    -0.87110
O1851       O  0.71687589  0.31723391  0.80459971    -0.86920
O1852       O  0.81964737  0.33465116  0.80110999    -0.87290
O1853       O  0.87705820  0.23878677  0.77061173    -0.86750
O1854       O  0.78574038  0.35802608  0.75818715    -0.87810
O1855       O  0.85777537  0.18653587  0.73908408    -0.86970
O1856       O  0.78939595  0.34736913  0.66136753    -0.87370
O1857       O  0.70116277  0.25776913  0.81740931    -0.87090
O1858       O  0.74957731  0.15589654  0.80016074    -0.86740
O1859       O  0.82400472  0.24447892  0.63363504    -0.87150
O1860       O  0.87289535  0.30414995  0.74471790    -0.87450
O1861       O  0.82515303  0.25640930  0.83552665    -0.88790
Zr1862     Zr  0.79737687  0.28369788  0.67242662     2.83100
Zr1863     Zr  0.73766956  0.21833776  0.78723767     2.83500
Zr1864     Zr  0.73916489  0.31268205  0.74347276     2.84090
Zr1865     Zr  0.79839367  0.18952996  0.71781457     2.83360
Zr1866     Zr  0.82504084  0.27404802  0.77298003     2.84220
O1867       O  0.79710742  0.21532740  0.77465529    -1.09360
O1868       O  0.79764572  0.30922903  0.72979067    -1.08860
C1869       C  0.88174265  0.31248193  0.71325221     1.05800
C1870       C  0.80334945  0.23816640  0.85529027     1.08420
C1871       C  0.76851562  0.36990308  0.67364969     1.05980
C1872       C  0.82865074  0.21059871  0.63205320     1.06340
C1873       C  0.76912724  0.13230249  0.78733300     1.05920
C1874       C  0.70613118  0.29166545  0.82596291     1.05470
C1875       C  0.80246359  0.36061994  0.78818477     1.05900
C1876       C  0.88191700  0.20838121  0.75452769     1.05410
H1877       H  0.76861855  0.28787328  0.81028350     0.32090
O1878       O  0.76675130  0.27711452  0.78659595    -1.30460
H1879       H  0.84871211  0.24599569  0.70762689     0.32110
O1880       O  0.82513723  0.24822974  0.71522067    -1.31840
C1881       C  0.64992784  0.26562067  0.96155463    -0.03280
C1882       C  0.52962820  0.37282363  0.71336824    -0.03280
C1883       C  0.88166648  0.23505824  0.99379586    -0.03280
C1884       C  0.76748697  0.48930366  0.86505064    -0.03280
C1885       C  0.71771056  0.27501483  0.88773661    -0.09950
C1886       C  0.70188395  0.29867759  0.86412479     0.06250
C1887       C  0.67503187  0.31827673  0.87605050    -0.03710
C1888       C  0.66087661  0.30996273  0.90880780    -0.08160
C1889       C  0.67155388  0.28024222  0.92975414     0.05370
C1890       C  0.70230983  0.26437293  0.91939393    -0.03190
Br1891     Br  0.72218530  0.22468592  0.94378531    -0.02880
H1892       H  0.73936832  0.26074203  0.87916243     0.09280
H1893       H  0.63985865  0.32613216  0.91571158     0.07300
Br1894     Br  0.65449033  0.35387577  0.84712175    -0.03310
C1895       C  0.72735019  0.28065258  0.53946263    -0.09950
C1896       C  0.71000130  0.26675659  0.56931276     0.06250
C1897       C  0.67313191  0.25851974  0.56443003    -0.03710
C1898       C  0.65625602  0.25925718  0.53069427    -0.08160
C1899       C  0.67352494  0.26761456  0.49886790     0.05370
C1900       C  0.70911621  0.28389650  0.50568445    -0.03190
Br1901     Br  0.73100838  0.32136496  0.97701084    -0.02880
H1902       H  0.75457479  0.29149414  0.54302262     0.09280
H1903       H  0.62824321  0.25798183  0.53117712     0.07300
Br1904     Br  0.64155246  0.25091137  0.60293253    -0.03310
C1905       C  0.85609252  0.20439397  0.93318937    -0.09950
C1906       C  0.85353265  0.23099572  0.96098352     0.06250
C1907       C  0.82841856  0.25703082  0.95397487    -0.03710
C1908       C  0.81083371  0.25823304  0.92005399    -0.08160
C1909       C  0.81590061  0.23284992  0.89275342     0.05370
C1910       C  0.83755535  0.20497558  0.90026025    -0.03190
Br1911     Br  0.84552645  0.16874888  0.86462223    -0.02880
H1912       H  0.87465464  0.18400522  0.93481855     0.09280
H1913       H  0.79413437  0.28003278  0.91460948     0.07300
Br1914     Br  0.81855665  0.29392053  0.98801326    -0.03310
C1915       C  0.87718046  0.20822318  0.59363670    -0.09950
C1916       C  0.84124747  0.20055348  0.59737201     0.06250
C1917       C  0.81818854  0.20354716  0.56732826    -0.03710
C1918       C  0.83072464  0.21663362  0.53511526    -0.08160
C1919       C  0.86688757  0.22597300  0.53114723     0.05370
C1920       C  0.89016144  0.22169845  0.56186772    -0.03190
Br1921     Br  0.94012063  0.23573963  0.56485746    -0.02880
H1922       H  0.89494569  0.20793916  0.61702925     0.09280
H1923       H  0.81186892  0.21813168  0.51296355     0.07300
Br1924     Br  0.76843390  0.19330709  0.57005063    -0.03310
C1925       C  0.78138062  0.45612671  0.80655167    -0.09950
C1926       C  0.76673564  0.45406107  0.84022495     0.06250
C1927       C  0.75888796  0.41763410  0.85277980    -0.03710
C1928       C  0.77493345  0.38852850  0.83787874    -0.08160
C1929       C  0.79626396  0.39332403  0.80886016     0.05370
C1930       C  0.79824704  0.42729935  0.79242649    -0.03190
Br1931     Br  0.82470182  0.43613787  0.75096298    -0.02880
H1932       H  0.78127039  0.48045755  0.79127984     0.09280
H1933       H  0.76940397  0.36145233  0.84811800     0.07300
Br1934     Br  0.72918623  0.40316588  0.89152213    -0.03310
C1935       C  0.74141739  0.05022359  0.84496896    -0.09950
C1936       C  0.76907627  0.02658444  0.84274472     0.06250
C1937       C  0.79786169  0.04049715  0.82144950    -0.03710
C1938       C  0.79679830  0.07389797  0.80337528    -0.08160
C1939       C  0.76846715  0.09582537  0.80552053     0.05370
C1940       C  0.74030330  0.08285903  0.82646200    -0.03190
Br1941     Br  0.69764147  0.10703119  0.83064730    -0.02880
H1942       H  0.71971526  0.04461503  0.86197216     0.09280
H1943       H  0.81908917  0.08333043  0.78806478     0.07300
Br1944     Br  0.84175423  0.01850670  0.81621227    -0.03310
C1945       C  0.94063615  0.31623611  0.68456538    -0.09950
C1946       C  0.91965736  0.32604062  0.71244823     0.06250
C1947       C  0.93690745  0.34331808  0.74330547    -0.03710
C1948       C  0.97323778  0.35116815  0.74517297    -0.08160
C1949       C  0.99374631  0.34821213  0.71500184     0.05370
C1950       C  0.97712826  0.32710037  0.68523338    -0.03190
Br1951     Br  0.00034107  0.31522627  0.64238299    -0.02880
H1952       H  0.92848614  0.30088015  0.66171298     0.09280
H1953       H  0.98434676  0.36282846  0.77015889     0.07300
Br1954     Br  0.91278297  0.36106017  0.78355657    -0.03310
C1955       C  0.62325815  0.35006434  0.69732197    -0.09950
C1956       C  0.62280582  0.31212551  0.69884654     0.06250
C1957       C  0.58975364  0.29208726  0.69827415    -0.03710
C1958       C  0.55931132  0.31052022  0.70474085    -0.08160
C1959       C  0.56082249  0.34919991  0.70339703     0.05370
C1960       C  0.59198518  0.36503480  0.68867924    -0.03190
Br1961     Br  0.59087577  0.36671882  0.63719382    -0.02880
H1962       H  0.64785644  0.36611767  0.69338545     0.09280
H1963       H  0.53502441  0.29470928  0.70969992     0.07300
Br1964     Br  0.58534257  0.24260319  0.68233355    -0.03310
C1965       C  0.79272184  0.46246968  0.63079538    -0.09950
C1966       C  0.76131237  0.46895396  0.61116337     0.06250
C1967       C  0.73414977  0.43909687  0.61028659    -0.03710
C1968       C  0.73614947  0.41007639  0.63391204    -0.08160
C1969       C  0.76684084  0.40493339  0.65409598     0.05370
C1970       C  0.79636667  0.42999497  0.64961374    -0.03190
Br1971     Br  0.84305785  0.41932856  0.66463798    -0.02880
H1972       H  0.81538397  0.48208523  0.63004472     0.09280
H1973       H  0.71438969  0.38921972  0.63408111     0.07300
Br1974     Br  0.69406669  0.43102097  0.57688061    -0.03310
C1975       C  0.76037862  0.04163085  0.65002115    -0.09950
C1976       C  0.76320124  0.04201971  0.61279567     0.06250
C1977       C  0.75850644  0.07616118  0.59565327    -0.03710
C1978       C  0.74324096  0.10376106  0.61350608    -0.08160
C1979       C  0.73698846  0.10163311  0.64952398     0.05370
C1980       C  0.74615249  0.07033319  0.66795746    -0.03190
Br1981     Br  0.73881630  0.06541251  0.71799467    -0.02880
H1982       H  0.76525212  0.01758453  0.66485140     0.09280
H1983       H  0.73911621  0.12868168  0.59982741     0.07300
Br1984     Br  0.77045035  0.08862156  0.54754531    -0.03310
C1985       C  0.55409883  0.42744756  0.67727034    -0.09950
C1986       C  0.52606738  0.40106068  0.68360588     0.06250
C1987       C  0.49663206  0.40063735  0.65979230    -0.03710
C1988       C  0.50237297  0.40831699  0.62477434    -0.08160
C1989       C  0.53366570  0.42814325  0.61542170     0.05370
C1990       C  0.55771808  0.44144438  0.64299493    -0.03190
Br1991     Br  0.59586949  0.47651038  0.63505123    -0.02880
H1992       H  0.57490428  0.43406406  0.69750676     0.09280
H1993       H  0.98029196  0.40301042  0.60569247     0.07300
Br1994     Br  0.94933349  0.40520887  0.67445962    -0.03310
C1995       C  0.51571640  0.42650495  0.75412731    -0.09950
C1996       C  0.53678127  0.39665165  0.74912363     0.06250
C1997       C  0.55807965  0.38782095  0.77955384    -0.03710
C1998       C  0.55762345  0.40790644  0.81202687    -0.08160
C1999       C  0.53623917  0.43683560  0.81604103     0.05370
C2000       C  0.51501979  0.44577054  0.78663677    -0.03190
Br2001     Br  0.98137469  0.48144896  0.79081764    -0.02880
H2002       H  0.99743947  0.43373245  0.73315120     0.09280
H2003       H  0.57291441  0.39963295  0.83507738     0.07300
Br2004     Br  0.58574974  0.34690388  0.78192237    -0.03310
C2005       C  0.70082591  0.47803111  0.86379181    -0.09950
C2006       C  0.73220814  0.48549620  0.88522248     0.06250
C2007       C  0.72820763  0.48887099  0.92279869    -0.03710
C2008       C  0.69474426  0.48293736  0.93731141    -0.08160
C2009       C  0.66399485  0.47794886  0.91537694     0.05370
C2010       C  0.66758354  0.47503840  0.87814636    -0.03190
Br2011     Br  0.62813667  0.46734949  0.84469114    -0.02880
H2012       H  0.70220219  0.47575516  0.83503186     0.09280
H2013       H  0.69250551  0.48546437  0.96591384     0.07300
Br2014     Br  0.76461964  0.50710862  0.95625570    -0.03310
C2015       C  0.86209949  0.51158535  0.90297758    -0.09950
C2016       C  0.87369112  0.47603154  0.90245852     0.06250
C2017       C  0.84811843  0.44692597  0.90492195    -0.03710
C2018       C  0.81255943  0.45376854  0.90210114    -0.08160
C2019       C  0.80155043  0.48769951  0.89026145     0.05370
C2020       C  0.82656457  0.51770888  0.89767298    -0.03190
Br2021     Br  0.81480878  0.56719249  0.90405946    -0.02880
H2022       H  0.88080207  0.53523994  0.90645345     0.09280
H2023       H  0.79408883  0.43144175  0.90730216     0.07300
Br2024     Br  0.85932616  0.39743159  0.91009853    -0.03310
C2025       C  0.66290617  0.02969170  0.58873463    -0.09950
C2026       C  0.65705083  0.04045772  0.55404034     0.06250
C2027       C  0.68407524  0.03787657  0.52990394    -0.03710
C2028       C  0.71512354  0.02153930  0.53977763    -0.08160
C2029       C  0.72147022  0.00988443  0.57485656     0.05370
C2030       C  0.69311116  0.01314305  0.59913655    -0.03190
Br2031     Br  0.69064255  0.99515728  0.64726362    -0.02880
H2032       H  0.64196603  0.03108936  0.60714788     0.09280
H2033       H  0.73553415  0.52100352  0.52091152     0.07300
Br2034     Br  0.67941967  0.55890061  0.98372814    -0.03310
C2035       C  0.82818150  0.48598463  0.51496472    -0.09950
C2036       C  0.85577673  0.01338640  0.52201213     0.06250
C2037       C  0.85259876  0.03642786  0.55169489    -0.03710
C2038       C  0.82280604  0.03278003  0.57252819    -0.08160
C2039       C  0.79266382  0.00788866  0.56407808     0.05370
C2040       C  0.79726353  0.98298866  0.53534198    -0.03190
Br2041     Br  0.76463751  0.44183039  0.52406234    -0.02880
H2042       H  0.83123610  0.46569358  0.99431182     0.09280
H2043       H  0.82423054  0.05002791  0.59620688     0.07300
Br2044     Br  0.89026074  0.07175265  0.56730873    -0.03310
C2045       C  0.92278669  0.14334350  0.49879927    -0.09950
C2046       C  0.95756958  0.15207697  0.99043988     0.06250
C2047       C  0.96835197  0.18771408  0.98116727    -0.03710
C2048       C  0.94449941  0.21464290  0.98264267    -0.08160
C2049       C  0.90854486  0.20579219  0.98963231     0.05370
C2050       C  0.89800584  0.16832805  0.49592079    -0.03190
Br2051     Br  0.85032973  0.14638392  0.49788939    -0.03260
H2052       H  0.91393305  0.11533746  0.50408140     0.09280
H2053       H  0.95458986  0.24221565  0.97811715     0.07300
Br2054     Br  0.51368799  0.20008874  0.96320424    -0.03310
C2055       C  0.89849684  0.29912906  0.52511667    -0.09950
C2056       C  0.89885987  0.27553983  0.99434691     0.06250
C2057       C  0.91214008  0.29197231  0.96314508    -0.03710
C2058       C  0.92376440  0.32875528  0.96346782    -0.08160
C2059       C  0.92507196  0.35144756  0.49446739     0.05370
C2060       C  0.91228662  0.33578784  0.52573752    -0.03190
Br2061     Br  0.41314880  0.36222028  0.57037752    -0.02880
H2062       H  0.88705842  0.28984820  0.54944302     0.09280
H2063       H  0.93269053  0.33932452  0.93838407     0.07300
Br2064     Br  0.91609930  0.26738396  0.91781104    -0.03310
C2065       C  0.62322263  0.16340309  0.92407993    -0.09950
C2066       C  0.60484534  0.14924020  0.95296038     0.06250
C2067       C  0.59885727  0.17425924  0.98110820    -0.03710
C2068       C  0.60998182  0.21073260  0.97892280    -0.08160
C2069       C  0.63338788  0.22481740  0.95393833     0.05370
C2070       C  0.63662380  0.20052095  0.92355561    -0.03190
Br2071     Br  0.64775172  0.21483106  0.87599468    -0.02880
H2072       H  0.62591181  0.14586392  0.90102890     0.09280
H2073       H  0.59715703  0.22863487  0.99589530     0.07300
Br2074     Br  0.57469619  0.16390867  0.52476097    -0.03310
C2075       C  0.56564112  0.31924257  0.94451815    -0.09950
C2076       C  0.57659743  0.35153487  0.96325579     0.06250
C2077       C  0.60955199  0.35366944  0.98273539    -0.03710
C2078       C  0.62884768  0.32383977  0.98520834    -0.08160
C2079       C  0.61939116  0.29119232  0.96595696     0.05370
C2080       C  0.58713308  0.28987313  0.94421115    -0.03190
Br2081     Br  0.57232586  0.25345789  0.90832853    -0.02880
H2082       H  0.54118564  0.31755480  0.92849313     0.09280
H2083       H  0.65406192  0.32850526  0.99943694     0.07300
Br2084     Br  0.63447887  0.39745261  0.00324660    -0.03310
C2085       C  0.50719149  0.10492213  0.62764180    -0.09950
C2086       C  0.49836032  0.06710990  0.62606817     0.06250
C2087       C  0.49353254  0.04940160  0.65866642    -0.03710
C2088       C  0.99695887  0.06943903  0.69133740    -0.08160
C2089       C  0.50312094  0.10798209  0.69277807     0.05370
C2090       C  0.51028476  0.12497450  0.65977178    -0.03190
Br2091     Br  0.51993452  0.17650860  0.65491900    -0.02880
H2092       H  0.51150959  0.11958445  0.60321773     0.09280
H2093       H  0.99507689  0.05423189  0.71558919     0.07300
Br2094     Br  0.98444681  0.49788100  0.66055151    -0.03310
C2095       C  0.96322243  0.07699828  0.80677373    -0.09950
C2096       C  0.48720219  0.08907944  0.83452964     0.06250
C2097       C  0.51716290  0.11111972  0.82699471    -0.03710
C2098       C  0.52630163  0.11538822  0.79231777    -0.08160
C2099       C  0.50162458  0.10728265  0.76310001     0.05370
C2100       C  0.96898558  0.08762657  0.77153594    -0.03190
Br2101     Br  0.92951233  0.07654797  0.73843664    -0.02880
H2102       H  0.94008846  0.05937101  0.81250331     0.09280
H2103       H  0.55157813  0.13013174  0.79025931     0.07300
Br2104     Br  0.54744523  0.13568164  0.86388277    -0.03310
C2105       C  0.92232502  0.18563948  0.71322030    -0.09950
C2106       C  0.91746231  0.19814781  0.74792429     0.06250
C2107       C  0.94278478  0.19296798  0.77468318    -0.03710
C2108       C  0.97163940  0.17380741  0.76648382    -0.08160
C2109       C  0.97577086  0.15740308  0.73203178     0.05370
C2110       C  0.94804132  0.16236221  0.70577308    -0.03190
Br2111     Br  0.93337672  0.13391382  0.66307632    -0.02880
H2112       H  0.90228508  0.18973741  0.69252270     0.09280
H2113       H  0.99089372  0.17125782  0.78804690     0.07300
Br2114     Br  0.93799261  0.20915386  0.82299974    -0.03310
C2115       C  0.57202570  0.12559089  0.72599647    -0.09950
C2116       C  0.54500960  0.14958533  0.73089672     0.06250
C2117       C  0.55670358  0.18532720  0.74495875    -0.03710
C2118       C  0.59253579  0.19409587  0.75498714    -0.08160
C2119       C  0.61825263  0.16988032  0.74949159     0.05370
C2120       C  0.60764275  0.13552982  0.73447409    -0.03190
Br2121     Br  0.64139850  0.10117915  0.72469558    -0.02880
H2122       H  0.56533337  0.09782895  0.71680061     0.09280
H2123       H  0.60099414  0.22156976  0.76426541     0.07300
Br2124     Br  0.52934787  0.22678079  0.74836140    -0.03310
C2125       C  0.00593949  0.63082093  0.22879986    -0.03280
O2126       O  0.96335632  0.56658173  0.38847168    -0.87280
O2127       O  0.61921103  0.96743624  0.45920059    -0.87440
O2128       O  0.58306757  0.58892052  0.42542713    -0.89110
O2129       O  0.54832669  0.98351906  0.36200877    -0.87870
O2130       O  0.50934989  0.93385256  0.37144536    -0.87460
O2131       O  0.57937983  0.60199813  0.48457868    -0.88830
O2132       O  0.61099239  0.00579878  0.41254890    -0.87310
O2133       O  0.51963021  0.55705213  0.37308664    -0.86890
Zr2134     Zr  0.55258269  0.52518223  0.41580954     2.84310
O2135       O  0.54880921  0.96582194  0.43771130    -1.08870
O2136       O  0.51726831  0.56006677  0.44990059    -1.09600
C2137       C  0.48946142  0.56962178  0.36764758     1.05830
C2138       C  0.62906196  0.98360029  0.43018435     1.05770
C2139       C  0.58873065  0.61055350  0.45360725     1.08750
C2140       C  0.53127518  0.95256684  0.35225030     1.06530
H2141       H  0.59662100  0.53542579  0.47533443     0.32090
O2142       O  0.57238159  0.52562497  0.47505242    -1.29820
H2143       H  0.98809549  0.99807618  0.38653569     0.31770
O2144       O  0.49460853  0.99946801  0.41169866    -1.31500
O2145       O  0.56007395  0.94653849  0.06002136    -0.87270
O2146       O  0.90167953  0.52741880  0.47853025    -0.88770
O2147       O  0.59863616  0.55840159  0.03781642    -0.87350
O2148       O  0.53117737  0.88960977  0.43923594    -0.87400
O2149       O  0.92745366  0.94387752  0.41186058    -0.87110
O2150       O  0.50374895  0.61366847  0.00348081    -0.86920
O2151       O  0.97909543  0.51955480  0.08038074    -0.87290
O2152       O  0.94362490  0.91433897  0.01712045    -0.86750
O2153       O  0.52228391  0.56465648  0.07016554    -0.87810
O2154       O  0.95666758  0.89420793  0.46153475    -0.86970
O2155       O  0.61407675  0.00001886  0.03038487    -0.87370
O2156       O  0.96052620  0.59864333  0.45979263    -0.87090
O2157       O  0.93022997  0.00177537  0.39590229    -0.86740
O2158       O  0.56342060  0.90411759  0.49063950    -0.87150
O2159       O  0.50201772  0.95138849  0.07089598    -0.87450
O2160       O  0.91183187  0.99211814  0.02710336    -0.88790
Zr2161     Zr  0.56713234  0.96754360  0.49791813     2.83100
Zr2162     Zr  0.95838013  0.53546880  0.44492343     2.83500
Zr2163     Zr  0.53807294  0.56033364  0.00946089     2.84090
Zr2164     Zr  0.49066081  0.93997011  0.43232334     2.83360
Zr2165     Zr  0.97245431  0.97870461  0.02516168     2.84220
O2166       O  0.95444915  0.97608357  0.46522920    -1.09360
O2167       O  0.53178187  0.00227666  0.03136295    -1.08860
C2168       C  0.53280656  0.94297779  0.07968150     1.05800
C2169       C  0.89175357  0.51054663  0.00738983     1.08420
C2170       C  0.62067415  0.53328831  0.04019714     1.05980
C2171       C  0.55509659  0.88333803  0.46380870     1.06340
C2172       C  0.91226125  0.97260515  0.40226743     1.05920
C2173       C  0.97677474  0.62038539  0.48326573     1.05470
C2174       C  0.49971142  0.54845780  0.09016908     1.05900
C2175       C  0.94238727  0.88946356  0.99155954     1.05410
H2176       H  0.96384148  0.55320014  0.01850439     0.32090
O2177       O  0.97808865  0.53810623  0.00476724    -1.30460
H2178       H  0.50711244  0.91926412  0.00335465     0.32110
O2179       O  0.50870423  0.94297468  0.49291641    -1.31840
C2180       C  0.76003578  0.50583515  0.08992865    -0.03280
O2181       O  0.67596790  0.69087995  0.27524596    -0.87280
O2182       O  0.75825642  0.78037033  0.11559614    -0.87440
O2183       O  0.66240194  0.76487846  0.18919973    -0.89110
O2184       O  0.71735612  0.66135084  0.16356133    -0.87870
O2185       O  0.76814327  0.64053892  0.18768244    -0.87460
O2186       O  0.67983141  0.81641925  0.22277427    -0.88830
O2187       O  0.71123646  0.73985526  0.12581108    -0.87310
O2188       O  0.66292527  0.69283796  0.21480850    -0.86890
Zr2189     Zr  0.71182097  0.72466515  0.18810021     2.84310
O2190       O  0.77057840  0.72391665  0.17454504    -1.08870
O2191       O  0.71161313  0.75345245  0.24387955    -1.09600
C2192       C  0.65507960  0.68510008  0.24687959     1.05830
C2193       C  0.72825166  0.76232915  0.10570733     1.05770
C2194       C  0.65705808  0.79621439  0.20360634     1.08750
C2195       C  0.73961103  0.63658542  0.16875348     1.06530
H2196       H  0.72574326  0.79878251  0.17041193     0.32090
O2197       O  0.73844345  0.78456649  0.18718657    -1.29820
H2198       H  0.72764553  0.66633023  0.23245069     0.31770
O2199       O  0.73932428  0.69048435  0.23141483    -1.31500
O2200       O  0.86092761  0.80807859  0.18447499    -0.87270
O2201       O  0.77273638  0.72295724  0.34442865    -0.88770
O2202       O  0.74773347  0.86310998  0.19996594    -0.87350
O2203       O  0.82287026  0.68715418  0.15711479    -0.87400
O2204       O  0.78891906  0.63845777  0.26023641    -0.87110
O2205       O  0.71686754  0.81722708  0.30459638    -0.86920
O2206       O  0.81963651  0.83465328  0.30111240    -0.87290
O2207       O  0.87705925  0.73879401  0.27061443    -0.86750
O2208       O  0.78572885  0.85802562  0.25818847    -0.87810
O2209       O  0.85777948  0.68654222  0.23908694    -0.86970
O2210       O  0.78938873  0.84737117  0.16136871    -0.87370
O2211       O  0.70116981  0.75776143  0.31741907    -0.87090
O2212       O  0.74958340  0.65589333  0.30015797    -0.86740
O2213       O  0.82400030  0.74447786  0.13363132    -0.87150
O2214       O  0.87289121  0.80414992  0.24471625    -0.87450
O2215       O  0.82515113  0.75640678  0.33552633    -0.88790
Zr2216     Zr  0.79737657  0.78369982  0.17242564     2.83100
Zr2217     Zr  0.73766972  0.71833378  0.28723479     2.83500
Zr2218     Zr  0.73915852  0.81267714  0.24347059     2.84090
Zr2219     Zr  0.79839780  0.68953259  0.21781500     2.83360
Zr2220     Zr  0.82503770  0.77405119  0.27298101     2.84220
O2221       O  0.79710853  0.71532873  0.27465547    -1.09360
O2222       O  0.79764128  0.80923057  0.22979034    -1.08860
C2223       C  0.88174199  0.81247777  0.21325094     1.05800
C2224       C  0.80334838  0.73816176  0.35528928     1.08420
C2225       C  0.76850395  0.86990150  0.17364985     1.05980
C2226       C  0.82865069  0.71059830  0.13205222     1.06340
C2227       C  0.76913738  0.63230191  0.28733205     1.05920
C2228       C  0.70612915  0.79166046  0.32596437     1.05470
C2229       C  0.80244974  0.86062018  0.28818730     1.05900
C2230       C  0.88192009  0.70838842  0.25453108     1.05410
H2231       H  0.76861339  0.78787052  0.31028158     0.32090
O2232       O  0.76674705  0.77711209  0.28659392    -1.30460
H2233       H  0.84871202  0.74599894  0.20762856     0.32110
O2234       O  0.82513701  0.74823342  0.21522159    -1.31840
C2235       C  0.64992579  0.76564238  0.46155781    -0.03280
C2236       C  0.52962225  0.87281774  0.21335815    -0.03280
C2237       C  0.88166929  0.73504276  0.49379302    -0.03280
C2238       C  0.76745169  0.98929989  0.36504482    -0.03280
C2239       C  0.71771041  0.77502310  0.38774167    -0.09950
C2240       C  0.70188151  0.79867950  0.36412471     0.06250
C2241       C  0.67502958  0.81828101  0.37604658    -0.03710
C2242       C  0.66087574  0.80997510  0.40880583    -0.08160
C2243       C  0.67155403  0.78025973  0.42975796     0.05370
C2244       C  0.70231062  0.76438857  0.41940158    -0.03190
Br2245     Br  0.72218632  0.72470592  0.44380013    -0.02880
H2246       H  0.73936785  0.76074749  0.37916943     0.09280
H2247       H  0.63985669  0.82614485  0.41570579     0.07300
Br2248     Br  0.65448509  0.85387139  0.34711085    -0.03310
C2249       C  0.72734766  0.78067057  0.03946473    -0.09950
C2250       C  0.70999732  0.76677579  0.06931451     0.06250
C2251       C  0.67312603  0.75855206  0.06443446    -0.03710
C2252       C  0.65624845  0.75929845  0.03070008    -0.08160
C2253       C  0.67351977  0.76764496  0.99887279     0.05370
C2254       C  0.70911341  0.78391988  0.00568774    -0.03190
Br2255     Br  0.73100978  0.82138571  0.47701379    -0.02880
H2256       H  0.75457433  0.79150551  0.04302380     0.09280
H2257       H  0.62823530  0.75803751  0.03118285     0.07300
Br2258     Br  0.64154973  0.75094842  0.10293938    -0.03310
C2259       C  0.85609649  0.70438357  0.43318359    -0.09950
C2260       C  0.85353495  0.73098149  0.46098077     0.06250
C2261       C  0.82841840  0.75701523  0.45397556    -0.03710
C2262       C  0.81083319  0.75822045  0.42005522    -0.08160
C2263       C  0.81590140  0.73284147  0.39275151     0.05370
C2264       C  0.83755880  0.70496814  0.40025463    -0.03190
Br2265     Br  0.84553213  0.66874705  0.36461197    -0.02880
H2266       H  0.87466024  0.68399624  0.43481071     0.09280
H2267       H  0.79413226  0.78001954  0.41461382     0.07300
Br2268     Br  0.81855183  0.79389918  0.48801824    -0.03310
C2269       C  0.87718061  0.70821255  0.09363604    -0.09950
C2270       C  0.84124695  0.70054971  0.09737175     0.06250
C2271       C  0.81818890  0.70353989  0.06732674    -0.03710
C2272       C  0.83072733  0.71661550  0.03511100    -0.08160
C2273       C  0.86689052  0.72595357  0.03114350     0.05370
C2274       C  0.89016352  0.72168035  0.06186499    -0.03190
Br2275     Br  0.94012307  0.73571909  0.06485563    -0.02880
H2276       H  0.89494522  0.70793023  0.11702922     0.09280
H2277       H  0.81187222  0.71811113  0.01295845     0.07300
Br2278     Br  0.76843249  0.69331587  0.07005068    -0.03310
C2279       C  0.78136129  0.95612581  0.30654971    -0.09950
C2280       C  0.76670418  0.95405889  0.34021728     0.06250
C2281       C  0.75885310  0.91763152  0.35276927    -0.03710
C2282       C  0.77490333  0.88852630  0.33787292    -0.08160
C2283       C  0.79624469  0.89332310  0.30886253     0.05370
C2284       C  0.79823395  0.92729936  0.29243091    -0.03190
Br2285     Br  0.82470701  0.93613979  0.25097975    -0.02880
H2286       H  0.78125642  0.98045733  0.29127844     0.09280
H2287       H  0.76937089  0.86144982  0.34811027     0.07300
Br2288     Br  0.72914510  0.90316402  0.39150653    -0.03310
C2289       C  0.74144442  0.55022348  0.34497654    -0.09950
C2290       C  0.76910452  0.52658638  0.34274782     0.06250
C2291       C  0.79788378  0.54049885  0.32144451    -0.03710
C2292       C  0.79681469  0.57389900  0.30336975    -0.08160
C2293       C  0.76848307  0.59582537  0.30552101     0.05370
C2294       C  0.74032453  0.58285803  0.32646894    -0.03190
Br2295     Br  0.69766212  0.60702717  0.33066320    -0.02880
H2296       H  0.71974534  0.54461341  0.36198330     0.09280
H2297       H  0.81910144  0.58333149  0.28805353     0.07300
Br2298     Br  0.84177484  0.51850845  0.31619590    -0.03310
C2299       C  0.94063311  0.81622789  0.18455935    -0.09950
C2300       C  0.91965915  0.82602705  0.21244861     0.06250
C2301       C  0.93691602  0.84328943  0.24331062    -0.03710
C2302       C  0.97324612  0.85113644  0.24517266    -0.08160
C2303       C  0.99374568  0.84819848  0.21499348     0.05370
C2304       C  0.97712538  0.82709068  0.18522434    -0.03190
Br2305     Br  0.00033718  0.81521878  0.14237308    -0.02880
H2306       H  0.92847939  0.80087863  0.16170460     0.09280
H2307       H  0.98436283  0.86278155  0.27016203     0.07300
Br2308     Br  0.91280542  0.86101503  0.28357902    -0.03310
C2309       C  0.62325426  0.85005976  0.19729171    -0.09950
C2310       C  0.62280351  0.81212190  0.19882920     0.06250
C2311       C  0.58975232  0.79208364  0.19826951    -0.03710
C2312       C  0.55931107  0.81051709  0.20473930    -0.08160
C2313       C  0.56081923  0.84919625  0.20338689     0.05370
C2314       C  0.59197765  0.86502894  0.18865738    -0.03190
Br2315     Br  0.59085355  0.86671327  0.13717205    -0.02880
H2316       H  0.64785125  0.86611114  0.19334420     0.09280
H2317       H  0.53502583  0.79470607  0.20970458     0.07300
Br2318     Br  0.58533992  0.74259724  0.18233694    -0.03310
C2319       C  0.79269499  0.96247221  0.13079861    -0.09950
C2320       C  0.76128377  0.96895262  0.11116762     0.06250
C2321       C  0.73412341  0.93909340  0.11029284    -0.03710
C2322       C  0.73612913  0.91007163  0.13391600    -0.08160
C2323       C  0.76682325  0.90493139  0.15409681     0.05370
C2324       C  0.79634506  0.92999811  0.14961601    -0.03190
Br2325     Br  0.84303794  0.91934134  0.16464378    -0.02880
H2326       H  0.81535469  0.98209087  0.13004810     0.09280
H2327       H  0.71437182  0.88921224  0.13408583     0.07300
Br2328     Br  0.69403776  0.93101421  0.07689008    -0.03310
C2329       C  0.76040892  0.54163295  0.15001856    -0.09950
C2330       C  0.76323493  0.54202235  0.11279362     0.06250
C2331       C  0.75854116  0.57616422  0.09565145    -0.03710
C2332       C  0.74326982  0.60376176  0.11350206    -0.08160
C2333       C  0.73701075  0.60163196  0.14951851     0.05370
C2334       C  0.74617689  0.57033306  0.16795300    -0.03190
Br2335     Br  0.73883530  0.56541038  0.21798909    -0.02880
H2336       H  0.76528309  0.51758689  0.16484899     0.09280
H2337       H  0.73914434  0.62868180  0.09982304     0.07300
Br2338     Br  0.77048967  0.58862608  0.04754508    -0.03310
C2339       C  0.55408463  0.92744203  0.17725882    -0.09950
C2340       C  0.52605577  0.90105342  0.18359640     0.06250
C2341       C  0.49661731  0.90062861  0.15978614    -0.03710
C2342       C  0.50235350  0.90831032  0.12476787    -0.08160
C2343       C  0.53364378  0.92813876  0.11541259     0.05370
C2344       C  0.55769850  0.94144033  0.14298353    -0.03190
Br2345     Br  0.59584544  0.97650958  0.13503669    -0.02880
H2346       H  0.57489208  0.93405887  0.19749310     0.09280
H2347       H  0.98027085  0.90300301  0.10568811     0.07300
Br2348     Br  0.94931847  0.90519227  0.17445714    -0.03310
C2349       C  0.51567260  0.92648135  0.25411943    -0.09950
C2350       C  0.53676552  0.89665118  0.24911184     0.06250
C2351       C  0.55808560  0.88784718  0.27953552    -0.03710
C2352       C  0.55761540  0.90792855  0.31200994    -0.08160
C2353       C  0.53619894  0.93683039  0.31602981     0.05370
C2354       C  0.51496246  0.94574272  0.28662971    -0.03190
Br2355     Br  0.98128209  0.98138495  0.29081661    -0.02880
H2356       H  0.99738512  0.93369123  0.23314581     0.09280
H2357       H  0.57292335  0.89967307  0.33505644     0.07300
Br2358     Br  0.58581074  0.84697278  0.28189086    -0.03310
C2359       C  0.70078963  0.97803760  0.36377307    -0.09950
C2360       C  0.73216902  0.98549263  0.38521000     0.06250
C2361       C  0.72816282  0.98885486  0.42278638    -0.03710
C2362       C  0.69469693  0.98292000  0.43729244    -0.08160
C2363       C  0.66395055  0.97794619  0.41535271     0.05370
C2364       C  0.66754428  0.97505054  0.37812150    -0.03190
Br2365     Br  0.62810229  0.96739591  0.34465608    -0.02880
H2366       H  0.70217089  0.97576989  0.33501308     0.09280
H2367       H  0.69245432  0.98543578  0.46589537     0.07300
Br2368     Br  0.76457143  0.00707021  0.45625641    -0.03310
C2369       C  0.86205474  0.01158183  0.40299342    -0.09950
C2370       C  0.87364792  0.97602866  0.40246923     0.06250
C2371       C  0.84807645  0.94692133  0.40492769    -0.03710
C2372       C  0.81251754  0.95376187  0.40210061    -0.08160
C2373       C  0.80150962  0.98769358  0.39026206     0.05370
C2374       C  0.82651994  0.01770363  0.39768406    -0.03190
Br2375     Br  0.81475689  0.06718392  0.40407711    -0.02880
H2376       H  0.88075611  0.03523684  0.40647460     0.09280
H2377       H  0.79404695  0.93143354  0.40729654     0.07300
Br2378     Br  0.85928558  0.89742775  0.41010651    -0.03310
C2379       C  0.66293872  0.52969874  0.08874500    -0.09950
C2380       C  0.65708092  0.54047024  0.05405293     0.06250
C2381       C  0.68410324  0.53789146  0.02991341    -0.03710
C2382       C  0.71515130  0.52155061  0.03978121    -0.08160
C2383       C  0.72150033  0.50989028  0.07485785     0.05370
C2384       C  0.69314339  0.51314693  0.09914125    -0.03190
Br2385     Br  0.69067568  0.49515428  0.14726602    -0.02880
H2386       H  0.64199949  0.53109249  0.10716013     0.09280
H2387       H  0.73550874  0.02099223  0.02091085     0.07300
Br2388     Br  0.67939561  0.05888109  0.48371619    -0.03310
C2389       C  0.82815237  0.98598258  0.01497023    -0.09950
C2390       C  0.85580748  0.51338652  0.02200789     0.06250
C2391       C  0.85263080  0.53642659  0.05169195    -0.03710
C2392       C  0.82283857  0.53277863  0.07252601    -0.08160
C2393       C  0.79269435  0.50789029  0.06407441     0.05370
C2394       C  0.79729196  0.48299235  0.03533581    -0.03190
Br2395     Br  0.76461450  0.94182026  0.02407565    -0.02880
H2396       H  0.83120846  0.96569042  0.49431879     0.09280
H2397       H  0.82426466  0.55002470  0.09620603     0.07300
Br2398     Br  0.89029408  0.57174992  0.06730604    -0.03310
C2399       C  0.92280098  0.64333358  0.99878963    -0.09950
C2400       C  0.95758548  0.65207337  0.49043840     0.06250
C2401       C  0.96836419  0.68771268  0.48117013    -0.03710
C2402       C  0.94450641  0.71463706  0.48264156    -0.08160
C2403       C  0.90855155  0.70578071  0.48962690     0.05370
C2404       C  0.89801672  0.66831509  0.99591155    -0.03190
Br2405     Br  0.85034214  0.64636709  0.99788001    -0.03260
H2406       H  0.91395000  0.61532591  0.00406775     0.09280
H2407       H  0.95459374  0.74221155  0.47811918     0.07300
Br2408     Br  0.51370457  0.70009670  0.46322158    -0.03310
C2409       C  0.89849298  0.79911284  0.02511845    -0.09950
C2410       C  0.89885823  0.77552582  0.49434718     0.06250
C2411       C  0.91213397  0.79196207  0.46314550    -0.03710
C2412       C  0.92374706  0.82874757  0.46346795    -0.08160
C2413       C  0.92505080  0.85143913  0.99446796     0.05370
C2414       C  0.91227348  0.83577474  0.02573925    -0.03190
Br2415     Br  0.41313345  0.86220530  0.07038007    -0.02880
H2416       H  0.88705896  0.78982830  0.04944560     0.09280
H2417       H  0.93266829  0.83931925  0.43838336     0.07300
Br2418     Br  0.91610108  0.76737603  0.41781163    -0.03310
C2419       C  0.62323936  0.66341963  0.42409106    -0.09950
C2420       C  0.60486722  0.64925386  0.45297324     0.06250
C2421       C  0.59887727  0.67427156  0.48112191    -0.03710
C2422       C  0.60999570  0.71074654  0.47893587    -0.08160
C2423       C  0.63339334  0.72483617  0.45394614     0.05370
C2424       C  0.63663147  0.70053975  0.42356384    -0.03190
Br2425     Br  0.64775016  0.71484958  0.37600035    -0.02880
H2426       H  0.62593056  0.64588068  0.40104035     0.09280
H2427       H  0.59717344  0.72864513  0.49591360     0.07300
Br2428     Br  0.57472068  0.66391687  0.02477670    -0.03310
C2429       C  0.56562700  0.81924547  0.44450715    -0.09950
C2430       C  0.57657527  0.85154147  0.46324182     0.06250
C2431       C  0.60953077  0.85368661  0.48272049    -0.03710
C2432       C  0.62883550  0.82386322  0.48519558    -0.08160
C2433       C  0.61938423  0.79121018  0.46595168     0.05370
C2434       C  0.58712591  0.78988124  0.44420516    -0.03190
Br2435     Br  0.57232371  0.75345693  0.40833024    -0.02880
H2436       H  0.54117063  0.81754949  0.42848322     0.09280
H2437       H  0.65405062  0.82853630  0.49942169     0.07300
Br2438     Br  0.63444253  0.89747669  0.50323345    -0.03310
C2439       C  0.50718882  0.60492934  0.12763968    -0.09950
C2440       C  0.49836802  0.56711573  0.12606778     0.06250
C2441       C  0.49354198  0.54940709  0.15866587    -0.03710
C2442       C  0.99696242  0.56944504  0.19133618    -0.08160
C2443       C  0.50311931  0.60798837  0.19277602     0.05370
C2444       C  0.51027784  0.62498230  0.15976904    -0.03190
Br2445     Br  0.51991871  0.67651763  0.15491536    -0.02880
H2446       H  0.51150416  0.61959140  0.10321494     0.09280
H2447       H  0.99508274  0.55423790  0.21558811     0.07300
Br2448     Br  0.98442467  0.99787653  0.16055132    -0.03310
C2449       C  0.96325103  0.57700008  0.30678316    -0.09950
C2450       C  0.48724183  0.58907553  0.33453186     0.06250
C2451       C  0.51720162  0.61111300  0.32698871    -0.03710
C2452       C  0.52632561  0.61538820  0.29230863    -0.08160
C2453       C  0.50163823  0.60728711  0.26309875     0.05370
C2454       C  0.96900296  0.58763019  0.27154379    -0.03190
Br2455     Br  0.92952219  0.57655087  0.23845412    -0.02880
H2456       H  0.94011773  0.55937488  0.31251934     0.09280
H2457       H  0.55160186  0.63012980  0.29024339     0.07300
Br2458     Br  0.54749979  0.63566927  0.36386770    -0.03310
C2459       C  0.92232877  0.68564737  0.21322405    -0.09950
C2460       C  0.91746629  0.69815534  0.24792831     0.06250
C2461       C  0.94278702  0.69296994  0.27468778    -0.03710
C2462       C  0.97164031  0.67380662  0.26648805    -0.08160
C2463       C  0.97577177  0.65740543  0.23203470     0.05370
C2464       C  0.94804128  0.66236547  0.20577743    -0.03190
Br2465     Br  0.93336817  0.63390978  0.16308707    -0.02880
H2466       H  0.90228953  0.68974712  0.19252629     0.09280
H2467       H  0.99089339  0.67125212  0.28805152     0.07300
Br2468     Br  0.93799444  0.70915317  0.32300494    -0.03310
C2469       C  0.57202700  0.62560010  0.22597595    -0.09950
C2470       C  0.54501124  0.64959296  0.23088681     0.06250
C2471       C  0.55670615  0.68533028  0.24495956    -0.03710
C2472       C  0.59253874  0.69409543  0.25498867    -0.08160
C2473       C  0.61825438  0.66988052  0.24948453     0.05370
C2474       C  0.60764370  0.63553513  0.23445636    -0.03190
Br2475     Br  0.64139798  0.60118495  0.22466969    -0.02880
H2476       H  0.56533488  0.59784046  0.21677310     0.09280
H2477       H  0.60099816  0.72156664  0.26427434     0.07300
Br2478     Br  0.52935085  0.72678289  0.24837388    -0.03310
C2479       C  0.00593949  0.63082093  0.72879986    -0.03280
O2480       O  0.96335632  0.56658172  0.88847168    -0.87280
O2481       O  0.61921104  0.96743624  0.95920057    -0.87440
O2482       O  0.58306757  0.58892053  0.92542713    -0.89110
O2483       O  0.54832669  0.98351905  0.86200877    -0.87870
O2484       O  0.50934989  0.93385256  0.87144535    -0.87460
O2485       O  0.57937985  0.60199812  0.98457868    -0.88830
O2486       O  0.61099240  0.00579879  0.91254890    -0.87310
O2487       O  0.51963021  0.55705212  0.87308663    -0.86890
Zr2488     Zr  0.55258270  0.52518223  0.91580954     2.84310
O2489       O  0.54880922  0.96582194  0.93771130    -1.08870
O2490       O  0.51726832  0.56006678  0.94990059    -1.09600
C2491       C  0.48946142  0.56962178  0.86764757     1.05830
C2492       C  0.62906197  0.98360030  0.93018434     1.05770
C2493       C  0.58873066  0.61055349  0.95360724     1.08750
C2494       C  0.53127518  0.95256684  0.85225029     1.06530
H2495       H  0.59662101  0.53542580  0.97533442     0.32090
O2496       O  0.57238160  0.52562498  0.97505241    -1.29820
H2497       H  0.98809549  0.99807618  0.88653570     0.31770
O2498       O  0.49460854  0.99946801  0.91169866    -1.31500
O2499       O  0.56007393  0.94653850  0.56002137    -0.87270
O2500       O  0.90167954  0.52741879  0.97853025    -0.88770
O2501       O  0.59863615  0.55840158  0.53781642    -0.87350
O2502       O  0.53117738  0.88960977  0.93923594    -0.87400
O2503       O  0.92745366  0.94387751  0.91186058    -0.87110
O2504       O  0.50374895  0.61366847  0.50348082    -0.86920
O2505       O  0.97909542  0.51955480  0.58038074    -0.87290
O2506       O  0.94362488  0.91433898  0.51712044    -0.86750
O2507       O  0.52228390  0.56465647  0.57016554    -0.87810
O2508       O  0.95666759  0.89420793  0.96153476    -0.86970
O2509       O  0.61407673  0.00001886  0.53038489    -0.87370
O2510       O  0.96052620  0.59864333  0.95979262    -0.87090
O2511       O  0.93022997  0.00177537  0.89590230    -0.86740
O2512       O  0.56342061  0.90411760  0.99063950    -0.87150
O2513       O  0.50201769  0.95138849  0.57089597    -0.87450
O2514       O  0.91183185  0.99211814  0.52710335    -0.88790
Zr2515     Zr  0.56713236  0.96754360  0.99791812     2.83100
Zr2516     Zr  0.95838014  0.53546880  0.94492343     2.83500
Zr2517     Zr  0.53807293  0.56033363  0.50946090     2.84090
Zr2518     Zr  0.49066082  0.93997011  0.93232334     2.83360
Zr2519     Zr  0.97245429  0.97870461  0.52516167     2.84220
O2520       O  0.95444916  0.97608357  0.96522921    -1.09360
O2521       O  0.53178185  0.00227666  0.53136295    -1.08860
C2522       C  0.53280654  0.94297780  0.57968150     1.05800
C2523       C  0.89175356  0.51054663  0.50738982     1.08420
C2524       C  0.62067413  0.53328830  0.54019714     1.05980
C2525       C  0.55509660  0.88333803  0.96380869     1.06340
C2526       C  0.91226125  0.97260515  0.90226743     1.05920
C2527       C  0.97677475  0.62038539  0.98326573     1.05470
C2528       C  0.49971141  0.54845779  0.59016908     1.05900
C2529       C  0.94238726  0.88946356  0.49155953     1.05410
H2530       H  0.96384147  0.55320014  0.51850439     0.32090
O2531       O  0.97808864  0.53810623  0.50476724    -1.30460
H2532       H  0.50711243  0.91926412  0.50335464     0.32110
O2533       O  0.50870424  0.94297468  0.99291641    -1.31840
C2534       C  0.76003577  0.50583515  0.58992865    -0.03280
O2535       O  0.67596790  0.69087995  0.77524595    -0.87280
O2536       O  0.75825642  0.78037033  0.61559614    -0.87440
O2537       O  0.66240195  0.76487847  0.68919970    -0.89110
O2538       O  0.71735612  0.66135084  0.66356132    -0.87870
O2539       O  0.76814328  0.64053892  0.68768244    -0.87460
O2540       O  0.67983141  0.81641927  0.72277423    -0.88830
O2541       O  0.71123647  0.73985526  0.62581107    -0.87310
O2542       O  0.66292528  0.69283796  0.71480850    -0.86890
Zr2543     Zr  0.71182098  0.72466515  0.68810020     2.84310
O2544       O  0.77057841  0.72391666  0.67454504    -1.08870
O2545       O  0.71161313  0.75345245  0.74387955    -1.09600
C2546       C  0.65507960  0.68510008  0.74687958     1.05830
C2547       C  0.72825167  0.76232915  0.60570733     1.05770
C2548       C  0.65705809  0.79621441  0.70360629     1.08750
C2549       C  0.73961103  0.63658543  0.66875348     1.06530
H2550       H  0.72574327  0.79878251  0.67041193     0.32090
O2551       O  0.73844345  0.78456649  0.68718656    -1.29820
H2552       H  0.72764553  0.66633024  0.73245069     0.31770
O2553       O  0.73932428  0.69048436  0.73141483    -1.31500
O2554       O  0.86092763  0.80807858  0.68447499    -0.87270
O2555       O  0.77273639  0.72295725  0.84442865    -0.88770
O2556       O  0.74773348  0.86310998  0.69996594    -0.87350
O2557       O  0.82287027  0.68715418  0.65711479    -0.87400
O2558       O  0.78891907  0.63845778  0.76023641    -0.87110
O2559       O  0.71686754  0.81722709  0.80459637    -0.86920
O2560       O  0.81963651  0.83465328  0.80111240    -0.87290
O2561       O  0.87705925  0.73879402  0.77061443    -0.86750
O2562       O  0.78572887  0.85802562  0.75818845    -0.87810
O2563       O  0.85777948  0.68654223  0.73908694    -0.86970
O2564       O  0.78938874  0.84737118  0.66136871    -0.87370
O2565       O  0.70116981  0.75776144  0.81741906    -0.87090
O2566       O  0.74958341  0.65589334  0.80015797    -0.86740
O2567       O  0.82400030  0.74447786  0.63363132    -0.87150
O2568       O  0.87289121  0.80414991  0.74471625    -0.87450
O2569       O  0.82515113  0.75640679  0.83552633    -0.88790
Zr2570     Zr  0.79737658  0.78369982  0.67242564     2.83100
Zr2571     Zr  0.73766972  0.71833378  0.78723478     2.83500
Zr2572     Zr  0.73915852  0.81267715  0.74347058     2.84090
Zr2573     Zr  0.79839780  0.68953260  0.71781500     2.83360
Zr2574     Zr  0.82503770  0.77405120  0.77298101     2.84220
O2575       O  0.79710853  0.71532874  0.77465547    -1.09360
O2576       O  0.79764128  0.80923058  0.72979034    -1.08860
C2577       C  0.88174200  0.81247775  0.71325094     1.05800
C2578       C  0.80334838  0.73816177  0.85528928     1.08420
C2579       C  0.76850396  0.86990150  0.67364984     1.05980
C2580       C  0.82865070  0.71059830  0.63205222     1.06340
C2581       C  0.76913739  0.63230192  0.78733205     1.05920
C2582       C  0.70612915  0.79166046  0.82596437     1.05470
C2583       C  0.80244975  0.86062018  0.78818729     1.05900
C2584       C  0.88192009  0.70838843  0.75453108     1.05410
H2585       H  0.76861339  0.78787052  0.81028157     0.32090
O2586       O  0.76674705  0.77711210  0.78659392    -1.30460
H2587       H  0.84871202  0.74599894  0.70762856     0.32110
O2588       O  0.82513701  0.74823342  0.71522159    -1.31840
C2589       C  0.64992579  0.76564238  0.96155781    -0.03280
C2590       C  0.52962225  0.87281774  0.71335814    -0.03280
C2591       C  0.88166930  0.73504276  0.99379302    -0.03280
C2592       C  0.76745170  0.98929989  0.86504481    -0.03280
C2593       C  0.71771042  0.77502309  0.88774167    -0.09950
C2594       C  0.70188151  0.79867950  0.86412471     0.06250
C2595       C  0.67502960  0.81828101  0.87604659    -0.03710
C2596       C  0.66087576  0.80997511  0.90880584    -0.08160
C2597       C  0.67155404  0.78025972  0.92975796     0.05370
C2598       C  0.70231062  0.76438857  0.91940157    -0.03190
Br2599     Br  0.72218632  0.72470591  0.94380013    -0.02880
H2600       H  0.73936785  0.76074748  0.87916943     0.09280
H2601       H  0.63985671  0.82614485  0.91570580     0.07300
Br2602     Br  0.65448513  0.85387142  0.84711089    -0.03310
C2603       C  0.72734766  0.78067058  0.53946473    -0.09950
C2604       C  0.70999733  0.76677579  0.56931451     0.06250
C2605       C  0.67312603  0.75855205  0.56443446    -0.03710
C2606       C  0.65624845  0.75929844  0.53070008    -0.08160
C2607       C  0.67351977  0.76764496  0.49887279     0.05370
C2608       C  0.70911341  0.78391989  0.50568774    -0.03190
Br2609     Br  0.73100979  0.82138570  0.97701379    -0.02880
H2610       H  0.75457433  0.79150553  0.54302379     0.09280
H2611       H  0.62823530  0.75803750  0.53118286     0.07300
Br2612     Br  0.64154974  0.75094841  0.60293938    -0.03310
C2613       C  0.85609649  0.70438358  0.93318359    -0.09950
C2614       C  0.85353496  0.73098149  0.96098077     0.06250
C2615       C  0.82841841  0.75701523  0.95397556    -0.03710
C2616       C  0.81083319  0.75822045  0.92005522    -0.08160
C2617       C  0.81590141  0.73284148  0.89275151     0.05370
C2618       C  0.83755881  0.70496814  0.90025463    -0.03190
Br2619     Br  0.84553214  0.66874706  0.86461196    -0.02880
H2620       H  0.87466025  0.68399624  0.93481071     0.09280
H2621       H  0.79413227  0.78001954  0.91461382     0.07300
Br2622     Br  0.81855184  0.79389919  0.98801823    -0.03310
C2623       C  0.87718061  0.70821255  0.59363604    -0.09950
C2624       C  0.84124695  0.70054971  0.59737175     0.06250
C2625       C  0.81818890  0.70353989  0.56732674    -0.03710
C2626       C  0.83072733  0.71661550  0.53511100    -0.08160
C2627       C  0.86689051  0.72595357  0.53114350     0.05370
C2628       C  0.89016352  0.72168036  0.56186499    -0.03190
Br2629     Br  0.94012306  0.73571910  0.56485562    -0.02880
H2630       H  0.89494522  0.70793023  0.61702922     0.09280
H2631       H  0.81187222  0.71811113  0.51295845     0.07300
Br2632     Br  0.76843249  0.69331586  0.57005068    -0.03310
C2633       C  0.78136130  0.95612581  0.80654971    -0.09950
C2634       C  0.76670418  0.95405889  0.84021727     0.06250
C2635       C  0.75885309  0.91763152  0.85276925    -0.03710
C2636       C  0.77490332  0.88852630  0.83787290    -0.08160
C2637       C  0.79624468  0.89332310  0.80886252     0.05370
C2638       C  0.79823395  0.92729937  0.79243091    -0.03190
Br2639     Br  0.82470703  0.93613979  0.75097975    -0.02880
H2640       H  0.78125644  0.98045734  0.79127844     0.09280
H2641       H  0.76937088  0.86144982  0.84811025     0.07300
Br2642     Br  0.72914510  0.90316402  0.89150652    -0.03310
C2643       C  0.74144445  0.55022350  0.84497656    -0.09950
C2644       C  0.76910455  0.52658641  0.84274784     0.06250
C2645       C  0.79788381  0.54049888  0.82144452    -0.03710
C2646       C  0.79681471  0.57389902  0.80336976    -0.08160
C2647       C  0.76848309  0.59582538  0.80552102     0.05370
C2648       C  0.74032455  0.58285805  0.82646896    -0.03190
Br2649     Br  0.69766214  0.60702719  0.83066322    -0.02880
H2650       H  0.71974537  0.54461344  0.86198333     0.09280
H2651       H  0.81910146  0.58333151  0.78805354     0.07300
Br2652     Br  0.84177488  0.51850849  0.81619592    -0.03310
C2653       C  0.94063313  0.81622789  0.68455933    -0.09950
C2654       C  0.91965918  0.82602702  0.71244862     0.06250
C2655       C  0.93691607  0.84328934  0.74331065    -0.03710
C2656       C  0.97324617  0.85113635  0.74517267    -0.08160
C2657       C  0.99374569  0.84819846  0.71499346     0.05370
C2658       C  0.97712539  0.82709068  0.68522432    -0.03190
Br2659     Br  0.00033719  0.81521879  0.64237305    -0.02880
H2660       H  0.92847939  0.80087865  0.66170458     0.09280
H2661       H  0.98436289  0.86278141  0.77016205     0.07300
Br2662     Br  0.91280550  0.86101487  0.78357911    -0.03310
C2663       C  0.62325426  0.85005977  0.69729159    -0.09950
C2664       C  0.62280352  0.81212191  0.69882914     0.06250
C2665       C  0.58975234  0.79208365  0.69826950    -0.03710
C2666       C  0.55931109  0.81051709  0.70473931    -0.08160
C2667       C  0.56081924  0.84919625  0.70338686     0.05370
C2668       C  0.59197763  0.86502893  0.68865730    -0.03190
Br2669     Br  0.59085346  0.86671325  0.63717196    -0.02880
H2670       H  0.64785124  0.86611114  0.69334404     0.09280
H2671       H  0.53502586  0.79470608  0.70970461     0.07300
Br2672     Br  0.58533993  0.74259723  0.68233696    -0.03310
C2673       C  0.79269499  0.96247221  0.63079859    -0.09950
C2674       C  0.76128377  0.96895262  0.61116760     0.06250
C2675       C  0.73412341  0.93909340  0.61029283    -0.03710
C2676       C  0.73612914  0.91007162  0.63391599    -0.08160
C2677       C  0.76682326  0.90493139  0.65409680     0.05370
C2678       C  0.79634506  0.92999811  0.64961600    -0.03190
Br2679     Br  0.84303794  0.91934135  0.66464377    -0.02880
H2680       H  0.81535468  0.98209087  0.63004808     0.09280
H2681       H  0.71437182  0.88921224  0.63408582     0.07300
Br2682     Br  0.69403776  0.93101420  0.57689007    -0.03310
C2683       C  0.76040892  0.54163295  0.65001856    -0.09950
C2684       C  0.76323492  0.54202235  0.61279362     0.06250
C2685       C  0.75854115  0.57616421  0.59565145    -0.03710
C2686       C  0.74326981  0.60376176  0.61350206    -0.08160
C2687       C  0.73701075  0.60163196  0.64951851     0.05370
C2688       C  0.74617689  0.57033306  0.66795300    -0.03190
Br2689     Br  0.73883532  0.56541038  0.71798910    -0.02880
H2690       H  0.76528309  0.51758689  0.66484899     0.09280
H2691       H  0.73914433  0.62868180  0.59982304     0.07300
Br2692     Br  0.77048965  0.58862607  0.54754508    -0.03310
C2693       C  0.55408463  0.92744204  0.67725882    -0.09950
C2694       C  0.52605576  0.90105343  0.68359641     0.06250
C2695       C  0.49661729  0.90062862  0.65978616    -0.03710
C2696       C  0.50235347  0.90831036  0.62476789    -0.08160
C2697       C  0.53364375  0.92813878  0.61541260     0.05370
C2698       C  0.55769848  0.94144034  0.64298353    -0.03190
Br2699     Br  0.59584544  0.97650957  0.63503668    -0.02880
H2700       H  0.57489208  0.93405887  0.69749310     0.09280
H2701       H  0.98027082  0.90300305  0.60568814     0.07300
Br2702     Br  0.94931845  0.90519225  0.67445717    -0.03310
C2703       C  0.51567250  0.92648127  0.75411946    -0.09950
C2704       C  0.53676550  0.89665118  0.74911183     0.06250
C2705       C  0.55808570  0.88784728  0.77953547    -0.03710
C2706       C  0.55761549  0.90792865  0.81200989    -0.08160
C2707       C  0.53619892  0.93683040  0.81602980     0.05370
C2708       C  0.51496235  0.94574264  0.78662974    -0.03190
Br2709     Br  0.98128188  0.98138475  0.79081669    -0.02880
H2710       H  0.99738496  0.93369109  0.73314586     0.09280
H2711       H  0.57292353  0.89967324  0.83505636     0.07300
Br2712     Br  0.58581104  0.84697304  0.78189074    -0.03310
C2713       C  0.70078964  0.97803762  0.86377306    -0.09950
C2714       C  0.73216903  0.98549263  0.88520999     0.06250
C2715       C  0.72816282  0.98885484  0.92278637    -0.03710
C2716       C  0.69469694  0.98291998  0.93729243    -0.08160
C2717       C  0.66395055  0.97794620  0.91535269     0.05370
C2718       C  0.66754429  0.97505058  0.87812149    -0.03190
Br2719     Br  0.62810230  0.96739603  0.84465605    -0.02880
H2720       H  0.70217090  0.97576993  0.83501307     0.09280
H2721       H  0.69245432  0.98543574  0.96589536     0.07300
Br2722     Br  0.76457144  0.00707014  0.95625642    -0.03310
C2723       C  0.86205474  0.01158182  0.90299343    -0.09950
C2724       C  0.87364793  0.97602865  0.90246923     0.06250
C2725       C  0.84807646  0.94692132  0.90492768    -0.03710
C2726       C  0.81251755  0.95376186  0.90210059    -0.08160
C2727       C  0.80150963  0.98769357  0.89026205     0.05370
C2728       C  0.82651994  0.01770361  0.89768407    -0.03190
Br2729     Br  0.81475688  0.06718390  0.90407714    -0.02880
H2730       H  0.88075611  0.03523683  0.90647464     0.09280
H2731       H  0.79404697  0.93143352  0.90729651     0.07300
Br2732     Br  0.85928559  0.89742774  0.91010646    -0.03310
C2733       C  0.66293871  0.52969874  0.58874500    -0.09950
C2734       C  0.65708091  0.54047022  0.55405293     0.06250
C2735       C  0.68410323  0.53789145  0.52991341    -0.03710
C2736       C  0.71515129  0.52155059  0.53978121    -0.08160
C2737       C  0.72150032  0.50989027  0.57485785     0.05370
C2738       C  0.69314339  0.51314692  0.59914125    -0.03190
Br2739     Br  0.69067568  0.49515427  0.64726603    -0.02880
H2740       H  0.64199948  0.53109249  0.60716014     0.09280
H2741       H  0.73550872  0.02099223  0.52091084     0.07300
Br2742     Br  0.67939564  0.05888108  0.98371618    -0.03310
C2743       C  0.82815235  0.98598259  0.51497021    -0.09950
C2744       C  0.85580747  0.51338652  0.52200789     0.06250
C2745       C  0.85263079  0.53642659  0.55169195    -0.03710
C2746       C  0.82283856  0.53277863  0.57252600    -0.08160
C2747       C  0.79269434  0.50789029  0.56407440     0.05370
C2748       C  0.79729195  0.48299235  0.53533580    -0.03190
Br2749     Br  0.76461447  0.94182028  0.52407561    -0.02880
H2750       H  0.83120848  0.96569041  0.99431883     0.09280
H2751       H  0.82426465  0.55002470  0.59620602     0.07300
Br2752     Br  0.89029406  0.57174992  0.56730603    -0.03310
C2753       C  0.92280097  0.64333358  0.49878964    -0.09950
C2754       C  0.95758548  0.65207337  0.99043840     0.06250
C2755       C  0.96836420  0.68771268  0.98117013    -0.03710
C2756       C  0.94450642  0.71463706  0.98264156    -0.08160
C2757       C  0.90855155  0.70578071  0.98962690     0.05370
C2758       C  0.89801672  0.66831509  0.49591155    -0.03190
Br2759     Br  0.85034214  0.64636709  0.49788002    -0.03260
H2760       H  0.91395000  0.61532591  0.50406776     0.09280
H2761       H  0.95459375  0.74221155  0.97811918     0.07300
Br2762     Br  0.51370458  0.70009670  0.96322159    -0.03310
C2763       C  0.89849297  0.79911285  0.52511844    -0.09950
C2764       C  0.89885823  0.77552582  0.99434719     0.06250
C2765       C  0.91213397  0.79196207  0.96314550    -0.03710
C2766       C  0.92374706  0.82874758  0.96346796    -0.08160
C2767       C  0.92505079  0.85143913  0.49446795     0.05370
C2768       C  0.91227347  0.83577475  0.52573924    -0.03190
Br2769     Br  0.41313342  0.86220531  0.57038006    -0.02880
H2770       H  0.88705895  0.78982830  0.54944560     0.09280
H2771       H  0.93266830  0.83931926  0.93838337     0.07300
Br2772     Br  0.91610108  0.76737603  0.91781163    -0.03310
C2773       C  0.62323936  0.66341963  0.92409105    -0.09950
C2774       C  0.60486723  0.64925386  0.95297324     0.06250
C2775       C  0.59887727  0.67427155  0.98112190    -0.03710
C2776       C  0.60999570  0.71074654  0.97893586    -0.08160
C2777       C  0.63339334  0.72483616  0.95394614     0.05370
C2778       C  0.63663148  0.70053975  0.92356384    -0.03190
Br2779     Br  0.64775016  0.71484959  0.87600035    -0.02880
H2780       H  0.62593056  0.64588069  0.90104035     0.09280
H2781       H  0.59717344  0.72864512  0.99591360     0.07300
Br2782     Br  0.57472067  0.66391688  0.52477670    -0.03310
C2783       C  0.56562700  0.81924547  0.94450715    -0.09950
C2784       C  0.57657528  0.85154147  0.96324181     0.06250
C2785       C  0.60953078  0.85368661  0.98272049    -0.03710
C2786       C  0.62883550  0.82386322  0.98519558    -0.08160
C2787       C  0.61938424  0.79121017  0.96595168     0.05370
C2788       C  0.58712591  0.78988124  0.94420516    -0.03190
Br2789     Br  0.57232371  0.75345693  0.90833024    -0.02880
H2790       H  0.54117064  0.81754949  0.92848322     0.09280
H2791       H  0.65405063  0.82853629  0.99942169     0.07300
Br2792     Br  0.63444255  0.89747669  0.00323344    -0.03310
C2793       C  0.50718882  0.60492934  0.62763968    -0.09950
C2794       C  0.49836801  0.56711572  0.62606778     0.06250
C2795       C  0.49354197  0.54940709  0.65866587    -0.03710
C2796       C  0.99696242  0.56944504  0.69133618    -0.08160
C2797       C  0.50311931  0.60798836  0.69277602     0.05370
C2798       C  0.51027785  0.62498230  0.65976904    -0.03190
Br2799     Br  0.51991872  0.67651762  0.65491536    -0.02880
H2800       H  0.51150416  0.61959139  0.60321494     0.09280
H2801       H  0.99508274  0.55423790  0.71558811     0.07300
Br2802     Br  0.98442464  0.99787652  0.66055131    -0.03310
C2803       C  0.96325104  0.57700008  0.80678316    -0.09950
C2804       C  0.48724183  0.58907552  0.83453186     0.06250
C2805       C  0.51720162  0.61111300  0.82698871    -0.03710
C2806       C  0.52632561  0.61538820  0.79230863    -0.08160
C2807       C  0.50163823  0.60728710  0.76309875     0.05370
C2808       C  0.96900297  0.58763019  0.77154379    -0.03190
Br2809     Br  0.92952219  0.57655087  0.73845412    -0.02880
H2810       H  0.94011774  0.55937487  0.81251934     0.09280
H2811       H  0.55160186  0.63012980  0.79024339     0.07300
Br2812     Br  0.54749979  0.63566927  0.86386770    -0.03310
C2813       C  0.92232877  0.68564737  0.71322405    -0.09950
C2814       C  0.91746629  0.69815534  0.74792831     0.06250
C2815       C  0.94278702  0.69296994  0.77468778    -0.03710
C2816       C  0.97164031  0.67380662  0.76648805    -0.08160
C2817       C  0.97577177  0.65740543  0.73203470     0.05370
C2818       C  0.94804128  0.66236547  0.70577743    -0.03190
Br2819     Br  0.93336818  0.63390978  0.66308707    -0.02880
H2820       H  0.90228953  0.68974712  0.69252629     0.09280
H2821       H  0.99089340  0.67125211  0.78805152     0.07300
Br2822     Br  0.93799444  0.70915318  0.82300493    -0.03310
C2823       C  0.57202700  0.62560009  0.72597595    -0.09950
C2824       C  0.54501124  0.64959296  0.73088681     0.06250
C2825       C  0.55670615  0.68533027  0.74495956    -0.03710
C2826       C  0.59253875  0.69409543  0.75498866    -0.08160
C2827       C  0.61825438  0.66988052  0.74948453     0.05370
C2828       C  0.60764370  0.63553512  0.73445636    -0.03190
Br2829     Br  0.64139798  0.60118495  0.72466969    -0.02880
H2830       H  0.56533488  0.59784046  0.71677310     0.09280
H2831       H  0.60099816  0.72156663  0.76427434     0.07300
Br2832     Br  0.52935085  0.72678288  0.74837388    -0.03310
loop_ 
_geom_bond_atom_site_label_1 
_geom_bond_atom_site_label_2 
_geom_bond_distance 
_geom_bond_site_symmetry_2 
_ccdc_geom_bond_type 
C1          C339   1.578       .  S
C1         C1735   1.573       .  S
C1         C1745   1.572       .  S
C1         C1762   1.588       .  S
O2          Zr38   2.433       .  S
O2         C1429   1.290       .  A
O3          Zr37   2.509       .  S
O3           C14   1.305       .  A
O4          Zr10   2.549       .  S
O4           C15   1.312       .  A
O5         Zr718   2.504       .  S
O5           C16   1.305       .  A
O6          Zr40   2.432   1_455  S
O6           C16   1.292       .  A
O7         Zr393   2.344       .  S
O7           C15   1.267       .  A
O8         Zr718   2.402       .  S
O8           C14   1.286       .  A
O9          Zr10   2.379       .  S
O9           C13   1.284   1_455  A
Zr10        O713   2.504   1_545  S
Zr10        O716   2.402       .  S
Zr10         O12   2.339       .  S
Zr10         O18   2.313       .  S
Zr10        O719   2.349   1_545  S
Zr10        O728   2.328   1_445  S
O11         Zr37   2.331       .  S
O11         Zr40   2.339   1_455  S
O11        Zr718   2.349       .  S
O12       Zr1454   2.349   1_455  S
O12        Zr393   2.336       .  S
C13        O1418   1.290       .  A
C13         C326   1.448       .  S
C14         C239   1.492       .  S
C15         C296   1.509       .  S
C16         C229   1.492       .  S
H17          O18   0.964       .  S
O18        Zr745   2.319   1_545  S
O18        Zr393   2.318       .  S
H19        O1436   0.964       .  S
O20         Zr40   2.337       .  S
O20        Zr718   2.328   1_655  S
O20       Zr2162   2.369       .  S
O20        H1435   0.964       .  S
O21        Zr391   2.486   1_554  S
O21          C44   1.299       .  A
O22         Zr38   2.547       .  S
O22         C399   1.313       .  A
O23         Zr39   2.506       .  S
O23          C46   1.302       .  A
O24         Zr40   2.521   1_455  S
O24          C47   1.305       .  A
O25       Zr1456   2.512       .  S
O25          C48   1.298       .  A
O26         Zr39   2.459       .  S
O26        C1819   1.294   1_454  A
O27        Zr749   2.529   1_545  S
O27        C1466   1.309       .  A
O28         Zr41   2.541       .  S
O28          C51   1.311   1_554  A
O29         Zr39   2.384       .  S
O29          C50   1.284   1_455  A
O30       Zr1456   2.359       .  S
O30         C405   1.280       .  A
O31        Zr391   2.350   1_554  S
O31         C754   1.276       .  A
O32         Zr38   2.381       .  S
O32          C49   1.283       .  A
O33        Zr746   2.366       .  S
O33          C48   1.260       .  A
O34         Zr37   2.343       .  S
O34          C47   1.266       .  A
O35       Zr1457   2.303   1_455  S
O35          C44   1.269       .  A
O36         Zr41   2.406       .  S
O36         C753   1.285       .  A
Zr37        O375   2.486       .  S
Zr37        O385   2.350       .  S
Zr37         O55   2.333       .  S
Zr37        O726   2.320       .  S
Zr37        O397   2.323       .  S
Zr38        O741   2.366       .  S
Zr38       O1428   2.349       .  S
Zr38       O2144   2.369   1_545  S
Zr38        O750   2.328   1_545  S
Zr38        O407   2.332       .  S
Zr39        O361   2.344   1_554  S
Zr39        O366   2.336   1_554  S
Zr39        O372   2.318   1_554  S
Zr39        O751   2.306       .  S
Zr39       O1469   2.363   1_455  S
Zr40       O1441   2.512       .  S
Zr40       O1446   2.359       .  S
Zr40         O55   2.342   1_655  S
Zr40       O1458   2.364       .  S
Zr41        O735   2.529       .  S
Zr41       O1451   2.303       .  S
Zr41        O396   2.318   1_554  S
Zr41       O1459   2.355       .  S
Zr41       O1825   2.343   1_554  S
Zr41        O761   2.331       .  S
O42        Zr746   2.328       .  S
O42       Zr1456   2.364       .  S
O42        Zr395   2.318       .  S
O43        Zr391   2.323   1_554  S
O43        Zr747   2.306       .  S
O43       Zr1457   2.355   1_455  S
C44         C219   1.456       .  S
C45         O376   1.313   1_554  A
C45         O744   1.285   1_545  A
C45         C266   1.508       .  S
C46         O739   1.276       .  A
C46         C256   1.462       .  S
C47         C306   1.485       .  S
C48         C246   1.488       .  S
C49        O1796   1.294       .  A
C49         C276   1.456       .  S
C50        O1443   1.309       .  A
C50         C316   1.505       .  S
C51         O384   1.280       .  A
C51         C289   1.509       .  S
H52          O53   0.966       .  S
O53        Zr392   2.332   1_554  S
O53       Zr1455   2.363       .  S
O53        Zr749   2.331   1_545  S
H54         O409   0.963   1_554  S
O55       Zr1811   2.343   1_455  S
O55         H408   0.963       .  S
C56         C206   1.567       .  S
C56         C259   1.570       .  S
C56         C269   1.608       .  S
C56         C904   1.592   1_545  S
O57         Zr93   2.502       .  S
O57          C68   1.304       .  A
O58         Zr92   2.542       .  S
O58          C69   1.311       .  A
O59         Zr65   2.492       .  S
O59          C70   1.302       .  A
O60         Zr65   2.523       .  S
O60          C71   1.308       .  A
O61         Zr95   2.312       .  S
O61          C71   1.269       .  A
O62         Zr94   2.374       .  S
O62          C70   1.283       .  A
O63         Zr65   2.411       .  S
O63          C69   1.286       .  A
O64         Zr65   2.388       .  S
O64          C68   1.283       .  A
Zr65         O66   2.320       .  S
Zr65         O67   2.328       .  S
Zr65         O75   2.339       .  S
Zr65         O73   2.357       .  S
O66         Zr92   2.358       .  S
O66         Zr95   2.348       .  S
O67         Zr93   2.335       .  S
O67         Zr94   2.346       .  S
C68         C349   1.476       .  S
C69         C126   1.522       .  S
C70         C186   1.480       .  S
C71         C209   1.460       .  S
H72          O73   0.965       .  S
O73         Zr92   2.339       .  S
O73         Zr94   2.332       .  S
H74          O75   0.965       .  S
O75         Zr93   2.319       .  S
O75         Zr95   2.333       .  S
O76         Zr92   2.532       .  S
O76          C99   1.310       .  A
O77         Zr93   2.472       .  S
O77         C100   1.298       .  A
O78         Zr94   2.508       .  S
O78         C101   1.306       .  A
O79         Zr95   2.499       .  S
O79         C102   1.302       .  A
O80         Zr95   2.502       .  S
O80         C103   1.303       .  A
O81         Zr94   2.485       .  S
O81         C104   1.301       .  A
O82         Zr96   2.482       .  S
O82         C105   1.294       .  A
O83         Zr96   2.462       .  S
O83         C106   1.294       .  A
O84         Zr94   2.377       .  S
O84         C105   1.266       .  A
O85         Zr95   2.378       .  S
O85         C106   1.283       .  A
O86         Zr92   2.434       .  S
O86         C101   1.289       .  A
O87         Zr93   2.395       .  S
O87         C104   1.282       .  A
O88         Zr93   2.438       .  S
O88         C103   1.291       .  A
O89         Zr92   2.351       .  S
O89         C102   1.278       .  A
O90         Zr96   2.358       .  S
O90          C99   1.277       .  A
O91         Zr96   2.445       .  S
O91         C100   1.293       .  A
Zr92         O98   2.331       .  S
Zr92        O110   2.358       .  S
Zr93         O97   2.345       .  S
Zr93        O108   2.355       .  S
Zr94         O98   2.322       .  S
Zr94        O108   2.366       .  S
Zr95         O97   2.321       .  S
Zr95        O110   2.323       .  S
Zr96         O97   2.338       .  S
Zr96         O98   2.356       .  S
Zr96        O110   2.349       .  S
Zr96        O108   2.312       .  S
C99         C176   1.492       .  S
C100        C139   1.485       .  S
C101        C199   1.502       .  S
C102        C146   1.457       .  S
C103        C169   1.519       .  S
C104        C116   1.467       .  S
C105        C159   1.463       .  S
C106        C336   1.466       .  S
H107        O108   0.963       .  S
H109        O110   0.964       .  S
C111        C119   1.558       .  S
C111        C299   1.600       .  S
C111        C309   1.569       .  S
C111        C483   1.627       .  S
C112        C189   1.584       .  S
C112        C216   1.550       .  S
C112        C226   1.590       .  S
C112       C1595   1.583   1_455  S
C113        C136   1.593       .  S
C113        C279   1.558       .  S
C113        C286   1.581       .  S
C113        C503   1.564       .  S
C114        C156   1.583       .  S
C114        C236   1.569       .  S
C114        C249   1.578       .  S
C114        C874   1.621       .  S
C115        C116   1.406       .  A
C115        C120   1.395       .  A
C115        H122   1.072       .  S
C116        C117   1.385       .  A
C117        C118   1.392       .  A
C117       Br124   1.913       .  S
C118        C119   1.436       .  A
C118        H123   1.075       .  S
C119        C120   1.418       .  A
C120       Br121   1.930       .  S
C125        C126   1.408       .  A
C125        C130   1.429       .  A
C125        H132   1.083       .  S
C126        C127   1.416       .  A
C127        C128   1.395       .  A
C127       Br134   1.929       .  S
C128        C129   1.414   1_554  A
C128        H133   1.066       .  S
C129        C465   1.627       .  S
C129        C130   1.448   1_556  A
C130       Br485   1.925   1_554  S
Br131       C484   1.925       .  S
C135        C136   1.430       .  A
C135        C140   1.397       .  A
C135        H142   1.075       .  S
C136        C137   1.430       .  A
C137        C138   1.414       .  A
C137       Br144   1.919       .  S
C138        C139   1.405       .  A
C138        H143   1.083       .  S
C139        C140   1.396       .  A
C140       Br141   1.923       .  S
C145        C146   1.389       .  A
C145        C150   1.394       .  A
C145        H152   1.085       .  S
C146        C147   1.410       .  A
C147        C148   1.398       .  A
C147       Br154   1.910       .  S
C148        C149   1.408       .  A
C148        H153   1.079       .  S
C149        C467   1.564   1_554  S
C149        C150   1.442       .  A
C150       Br151   1.930       .  S
C155        C156   1.403       .  A
C155        C160   1.395       .  A
C155        H162   1.074       .  S
C156        C157   1.445       .  A
C157        C158   1.398       .  A
C157       Br164   1.936       .  S
C158        C159   1.391       .  A
C158        H163   1.085       .  S
C159        C160   1.405       .  A
C160       Br161   1.908       .  S
C165        C166   1.426       .  A
C165        C170   1.404       .  A
C165        H172   1.075       .  S
C166        C822   1.621   1_545  S
C166        C167   1.450       .  A
C167        C168   1.420       .  A
C167       Br174   1.934       .  S
C168        C169   1.405       .  A
C168        H173   1.083       .  S
C169        C170   1.414       .  A
C170       Br171   1.928       .  S
C175        C176   1.403       .  A
C175        C180   1.415       .  A
C175        H182   1.083       .  S
C176        C177   1.419       .  A
C177        C178   1.390       .  A
C177       Br184   1.932       .  S
C178        C179   1.410       .  A
C178        H183   1.078       .  S
C179       C1528   1.583       .  S
C179        C180   1.442       .  A
C180       Br181   1.927       .  S
C185        C186   1.401       .  A
C185        C190   1.383       .  A
C185        H192   1.084       .  S
C186        C187   1.407       .  A
C187        C188   1.419       .  A
C187       Br194   1.903       .  S
C188        C189   1.426       .  A
C188        H193   1.078       .  S
C189        C190   1.418       .  A
C190       Br191   1.931       .  S
C195        C196   1.417       .  A
C195        C200   1.415       .  A
C195        H202   1.082       .  S
C196        C764   1.592       .  S
C196        C197   1.448       .  A
C197        C198   1.407       .  A
C197       Br204   1.933       .  S
C198        C199   1.393       .  A
C198        H203   1.085       .  S
C199        C200   1.415       .  A
C200       Br201   1.917       .  S
C205        C206   1.404       .  A
C205        C210   1.402       .  A
C205        H212   1.080       .  S
C206        C207   1.445       .  A
C207        C208   1.389       .  A
C207       Br214   1.933       .  S
C208        C209   1.384       .  A
C208        H213   1.080       .  S
C209        C210   1.417       .  A
C210       Br211   1.918       .  S
C215        C216   1.416       .  A
C215        C220   1.402       .  A
C215        H222   1.083       .  S
C216        C217   1.402   1_455  A
C217        C218   1.371   1_655  A
C217      Br1640   1.927       .  S
C218        C219   1.408       .  A
C218       H1639   1.083   1_455  S
C219        C220   1.405       .  A
C220       Br221   1.903       .  S
H223       C1634   1.083       .  S
Br224      C1633   1.927       .  S
C225        C226   1.429       .  A
C225        C230   1.402       .  A
C225       H1648   1.079   1_455  S
C226        C227   1.429       .  A
C227        C228   1.415       .  A
C227       Br234   1.912       .  S
C228        C229   1.405       .  A
C228        H233   1.084       .  S
C229        C230   1.399       .  A
C230      Br1647   1.920   1_455  S
Br231      C1646   1.920       .  S
H232       C1641   1.079       .  S
C235        C236   1.416       .  A
C235        C240   1.395       .  A
C235        H242   1.084       .  S
C236        C237   1.427       .  A
C237        C238   1.410       .  A
C237       Br244   1.902       .  S
C238        C239   1.400       .  A
C238        H243   1.082       .  S
C239        C240   1.411       .  A
C240       Br241   1.915       .  S
C245        C246   1.418       .  A
C245        C250   1.397       .  A
C245        H252   1.083       .  S
C246        C247   1.397       .  A
C247        C248   1.399       .  A
C247       Br254   1.921       .  S
C248        C249   1.425       .  A
C248        H253   1.066       .  S
C249        C250   1.416       .  A
C250       Br251   1.928       .  S
C255        C256   1.381       .  A
C255        C260   1.391       .  A
C255        H262   1.081       .  S
C256        C257   1.408       .  A
C257        C258   1.410       .  A
C257      Br1326   1.917   1_554  S
C258        C259   1.408       .  A
C258        H971   1.074       .  S
C259        C260   1.454       .  A
C260       Br261   1.937   1_545  S
H263        C966   1.074       .  S
Br264      C1319   1.917       .  S
C265        C974   1.412       .  A
C265        C978   1.429       .  A
C265        H626   1.084   1_554  S
C266        C267   1.403       .  A
C266        C973   1.412   1_545  A
C267        C268   1.405       .  A
C267       Br274   1.922       .  S
C268        C269   1.431       .  A
C268        H273   1.079       .  S
C269        C270   1.429   1_545  A
C270        C973   1.429       .  A
C270       Br979   1.912       .  S
Br271       C978   1.912       .  S
H272        C619   1.084       .  S
C275        C280   1.375       .  A
C275        C630   1.389       .  A
C275        H282   1.085   1_556  S
C276        C277   1.400       .  A
C276        C629   1.389       .  A
C277        C278   1.402       .  A
C277      Br1700   1.905       .  S
C278        C279   1.419       .  A
C278        H283   1.077       .  S
C279        C634   1.434       .  A
C280        C633   1.434       .  A
C280       Br281   1.933       .  S
Br284      C1693   1.905   1_455  S
C285        C290   1.410       .  A
C285        C640   1.433   1_554  A
C285        H292   1.077       .  S
C286        C287   1.421       .  A
C286        C639   1.433       .  A
C287        C288   1.393       .  A
C287       Br294   1.929       .  S
C288        C643   1.416       .  A
C288        H293   1.082       .  S
C289        C290   1.405   1_556  A
C289        C642   1.416       .  A
C290      Br1707   1.919       .  S
Br291      C1706   1.919       .  S
C295        C296   1.401       .  A
C295        C300   1.423       .  A
C295        H302   1.083       .  S
C296        C297   1.427       .  A
C297        C298   1.383       .  A
C297       Br658   1.941       .  S
C298        C299   1.399       .  A
C298        H303   1.070       .  S
C299        C300   1.452       .  A
C300       Br301   1.924       .  S
Br304       C651   1.941   1_554  S
C305        C306   1.396       .  A
C305        C310   1.411       .  A
C305        H312   1.083       .  S
C306        C307   1.421       .  A
C307        C308   1.375       .  A
C307       Br314   1.935       .  S
C308        C309   1.406       .  A
C308        H313   1.078       .  S
C309        C310   1.442       .  A
C310       Br311   1.917       .  S
C315        C316   1.408   1_455  A
C315        C320   1.397       .  A
C315        H322   1.084       .  S
C316        C317   1.408       .  A
C317       C1734   1.414       .  A
C317      Br2448   1.908   1_545  S
C318       C1733   1.414       .  A
C318       C1735   1.422       .  A
C318        H323   1.079       .  S
C319       C1417   1.573       .  S
C319        C320   1.424       .  A
C319       C1734   1.422   1_455  A
C320       Br321   1.921       .  S
Br324      C2441   1.908       .  S
C325        C330   1.406       .  A
C325       C1742   1.396       .  A
C325        H332   1.084       .  S
C326        C327   1.389   1_655  A
C326       C1741   1.396       .  A
C327        C328   1.369       .  A
C327       Br334   1.926       .  S
C328        C329   1.423       .  A
C328        H333   1.073       .  S
C329       C1417   1.572       .  S
C329       C1746   1.438   1_455  A
C330       C1745   1.438       .  A
C330       Br331   1.920       .  S
C335        C336   1.397       .  A
C335        C340   1.389       .  A
C335        H342   1.086       .  S
C336        C337   1.388       .  A
C337        C338   1.397       .  A
C337       Br344   1.917       .  S
C338        C339   1.436       .  A
C338        H343   1.079       .  S
C339        C340   1.438       .  A
C340       Br341   1.934       .  S
C345        C346   1.427       .  A
C345        C350   1.398       .  A
C345        H352   1.082       .  S
C346       C1417   1.588       .  S
C346        C347   1.440       .  A
C347        C348   1.411       .  A
C347       Br354   1.926       .  S
C348        C349   1.398       .  A
C348        H353   1.085       .  S
C349        C350   1.399       .  A
C350       Br351   1.920       .  S
C355       C2089   1.573       .  S
C355       C2099   1.572       .  S
C355        C693   1.578       .  S
C355       C2116   1.588       .  S
O356       Zr392   2.433       .  S
O356       C1783   1.290       .  A
O357       Zr391   2.509       .  S
O357        C368   1.305       .  A
O358       Zr364   2.549       .  S
O358        C369   1.312       .  A
O359      Zr1072   2.504       .  S
O359        C370   1.305       .  A
O360       Zr394   2.432   1_455  S
O360        C370   1.292       .  A
O361        C369   1.267       .  A
O362      Zr1072   2.402       .  S
O362        C368   1.286       .  A
O363       Zr364   2.379       .  S
O363        C367   1.284   1_455  A
Zr364      O1067   2.504   1_545  S
Zr364      O1070   2.402       .  S
Zr364      O1073   2.349   1_545  S
Zr364       O366   2.339       .  S
Zr364      O1082   2.328   1_445  S
Zr364       O372   2.313       .  S
O365      Zr1072   2.349       .  S
O365       Zr391   2.331       .  S
O365       Zr394   2.339   1_455  S
O366      Zr1808   2.349   1_455  S
C367       O1772   1.290       .  A
C367        C680   1.448       .  S
C368        C593   1.492       .  S
C369        C650   1.509       .  S
C370        C583   1.492       .  S
H371        O372   0.964       .  S
O372      Zr1099   2.319   1_545  S
H373       O1790   0.964       .  S
O374      Zr1072   2.328   1_655  S
O374      Zr2516   2.369       .  S
O374       Zr394   2.337       .  S
O374       H1789   0.964       .  S
O375        C398   1.299       .  A
O376       Zr392   2.547       .  S
O377       Zr393   2.506       .  S
O377        C400   1.302       .  A
O378       Zr394   2.521   1_455  S
O378        C401   1.305       .  A
O379      Zr1810   2.512       .  S
O379        C402   1.298       .  A
O380       Zr393   2.459       .  S
O380       C1465   1.294   1_455  A
O381      Zr1103   2.529   1_545  S
O381       C1820   1.309       .  A
O382       Zr395   2.541       .  S
O382        C405   1.311       .  A
O383       Zr393   2.384       .  S
O383        C404   1.284   1_455  A
O384      Zr1810   2.359       .  S
O385       C1108   1.276       .  A
O386       Zr392   2.381       .  S
O386        C403   1.283       .  A
O387      Zr1100   2.366       .  S
O387        C402   1.260       .  A
O388       Zr391   2.343       .  S
O388        C401   1.266       .  A
O389      Zr1811   2.303   1_455  S
O389        C398   1.269       .  A
O390       Zr395   2.406       .  S
O390       C1107   1.285       .  A
Zr391      O1080   2.320       .  S
Zr391       O409   2.333       .  S
Zr392      O1095   2.366       .  S
Zr392      O1782   2.349       .  S
Zr392      O2498   2.369   1_545  S
Zr392      O1104   2.328   1_545  S
Zr393      O1105   2.306       .  S
Zr393      O1823   2.363   1_455  S
Zr394      O1795   2.512       .  S
Zr394      O1800   2.359       .  S
Zr394      O1812   2.364       .  S
Zr394       O409   2.342   1_655  S
Zr395      O1089   2.529       .  S
Zr395      O1805   2.303       .  S
Zr395      O1813   2.355       .  S
Zr395      O1471   2.343       .  S
Zr395      O1115   2.331       .  S
O396      Zr1100   2.328       .  S
O396      Zr1810   2.364       .  S
O397      Zr1101   2.306       .  S
O397      Zr1811   2.355   1_455  S
C398        C573   1.456       .  S
C399       O1098   1.285   1_545  A
C399        C620   1.508       .  S
C400       O1093   1.276       .  A
C400        C610   1.462       .  S
C401        C660   1.485       .  S
C402        C600   1.488       .  S
C403       O1442   1.294   1_556  A
C403        C630   1.456       .  S
C404       O1797   1.309       .  A
C404        C670   1.505       .  S
C405        C643   1.509       .  S
H406        O407   0.966       .  S
O407      Zr1809   2.363       .  S
O407      Zr1103   2.331   1_545  S
O409      Zr1457   2.343   1_456  S
C410       C1258   1.592   1_545  S
C410        C560   1.567       .  S
C410        C613   1.570       .  S
C410        C623   1.608       .  S
O411       Zr447   2.502       .  S
O411        C422   1.304       .  A
O412       Zr446   2.542       .  S
O412        C423   1.311       .  A
O413       Zr419   2.492       .  S
O413        C424   1.302       .  A
O414       Zr419   2.523       .  S
O414        C425   1.308       .  A
O415       Zr449   2.312       .  S
O415        C425   1.269       .  A
O416       Zr448   2.374       .  S
O416        C424   1.283       .  A
O417       Zr419   2.411       .  S
O417        C423   1.286       .  A
O418       Zr419   2.388       .  S
O418        C422   1.283       .  A
Zr419       O420   2.320       .  S
Zr419       O421   2.328       .  S
Zr419       O429   2.339       .  S
Zr419       O427   2.357       .  S
O420       Zr446   2.358       .  S
O420       Zr449   2.348       .  S
O421       Zr447   2.335       .  S
O421       Zr448   2.346       .  S
C422        C703   1.476       .  S
C423        C480   1.522       .  S
C424        C540   1.480       .  S
C425        C563   1.460       .  S
H426        O427   0.965       .  S
O427       Zr446   2.339       .  S
O427       Zr448   2.332       .  S
H428        O429   0.965       .  S
O429       Zr447   2.319       .  S
O429       Zr449   2.333       .  S
O430       Zr446   2.532       .  S
O430        C453   1.310       .  A
O431       Zr447   2.472       .  S
O431        C454   1.298       .  A
O432       Zr448   2.508       .  S
O432        C455   1.306       .  A
O433       Zr449   2.499       .  S
O433        C456   1.302       .  A
O434       Zr449   2.502       .  S
O434        C457   1.303       .  A
O435       Zr448   2.485       .  S
O435        C458   1.301       .  A
O436       Zr450   2.482       .  S
O436        C459   1.294       .  A
O437       Zr450   2.462       .  S
O437        C460   1.294       .  A
O438       Zr448   2.377       .  S
O438        C459   1.266       .  A
O439       Zr449   2.378       .  S
O439        C460   1.283       .  A
O440       Zr446   2.434       .  S
O440        C455   1.289       .  A
O441       Zr447   2.395       .  S
O441        C458   1.282       .  A
O442       Zr447   2.438       .  S
O442        C457   1.291       .  A
O443       Zr446   2.351       .  S
O443        C456   1.278       .  A
O444       Zr450   2.358       .  S
O444        C453   1.277       .  A
O445       Zr450   2.445       .  S
O445        C454   1.293       .  A
Zr446       O452   2.331       .  S
Zr446       O464   2.358       .  S
Zr447       O451   2.345       .  S
Zr447       O462   2.355       .  S
Zr448       O452   2.322       .  S
Zr448       O462   2.366       .  S
Zr449       O451   2.321       .  S
Zr449       O464   2.323       .  S
Zr450       O451   2.338       .  S
Zr450       O452   2.356       .  S
Zr450       O464   2.349       .  S
Zr450       O462   2.312       .  S
C453        C530   1.492       .  S
C454        C493   1.485       .  S
C455        C553   1.502       .  S
C456        C500   1.457       .  S
C457        C523   1.519       .  S
C458        C470   1.467       .  S
C459        C513   1.463       .  S
C460        C690   1.466       .  S
H461        O462   0.963       .  S
H463        O464   0.964       .  S
C465        C473   1.558       .  S
C465        C653   1.600       .  S
C465        C663   1.569       .  S
C466       C1949   1.583   1_455  S
C466        C543   1.584       .  S
C466        C570   1.550       .  S
C466        C580   1.590       .  S
C467        C490   1.593       .  S
C467        C633   1.558       .  S
C467        C640   1.581       .  S
C468        C510   1.583       .  S
C468       C1228   1.621       .  S
C468        C590   1.569       .  S
C468        C603   1.578       .  S
C469        C470   1.406       .  A
C469        C474   1.395       .  A
C469        H476   1.072       .  S
C470        C471   1.385       .  A
C471        C472   1.392       .  A
C471       Br478   1.913       .  S
C472        C473   1.436       .  A
C472        H477   1.075       .  S
C473        C474   1.418       .  A
C474       Br475   1.930       .  S
C479        C480   1.408       .  A
C479        C484   1.429       .  A
C479        H486   1.083       .  S
C480        C481   1.416       .  A
C481        C482   1.395       .  A
C481       Br488   1.929       .  S
C482        C483   1.414       .  A
C482        H487   1.066       .  S
C483        C484   1.448       .  A
C489        C490   1.430       .  A
C489        C494   1.397       .  A
C489        H496   1.075       .  S
C490        C491   1.430       .  A
C491        C492   1.414       .  A
C491       Br498   1.919       .  S
C492        C493   1.405       .  A
C492        H497   1.083       .  S
C493        C494   1.396       .  A
C494       Br495   1.923       .  S
C499        C500   1.389       .  A
C499        C504   1.394       .  A
C499        H506   1.085       .  S
C500        C501   1.410       .  A
C501        C502   1.398       .  A
C501       Br508   1.910       .  S
C502        C503   1.408       .  A
C502        H507   1.079       .  S
C503        C504   1.442       .  A
C504       Br505   1.930       .  S
C509        C510   1.403       .  A
C509        C514   1.395       .  A
C509        H516   1.074       .  S
C510        C511   1.445       .  A
C511        C512   1.398       .  A
C511       Br518   1.936       .  S
C512        C513   1.391       .  A
C512        H517   1.085       .  S
C513        C514   1.405       .  A
C514       Br515   1.908       .  S
C519        C520   1.426       .  A
C519        C524   1.404       .  A
C519        H526   1.075       .  S
C520       C1176   1.621   1_545  S
C520        C521   1.450       .  A
C521        C522   1.420       .  A
C521       Br528   1.934       .  S
C522        C523   1.405       .  A
C522        H527   1.083       .  S
C523        C524   1.414       .  A
C524       Br525   1.928       .  S
C529        C530   1.403       .  A
C529        C534   1.415       .  A
C529        H536   1.083       .  S
C530        C531   1.419       .  A
C531        C532   1.390       .  A
C531       Br538   1.932       .  S
C532        C533   1.410       .  A
C532        H537   1.078       .  S
C533       C1882   1.583       .  S
C533        C534   1.442       .  A
C534       Br535   1.927       .  S
C539        C540   1.401       .  A
C539        C544   1.383       .  A
C539        H546   1.084       .  S
C540        C541   1.407       .  A
C541        C542   1.419       .  A
C541       Br548   1.903       .  S
C542        C543   1.426       .  A
C542        H547   1.078       .  S
C543        C544   1.418       .  A
C544       Br545   1.931       .  S
C549        C550   1.417       .  A
C549        C554   1.415       .  A
C549        H556   1.082       .  S
C550       C1118   1.592       .  S
C550        C551   1.448       .  A
C551        C552   1.407       .  A
C551       Br558   1.933       .  S
C552        C553   1.393       .  A
C552        H557   1.085       .  S
C553        C554   1.415       .  A
C554       Br555   1.917       .  S
C559        C560   1.404       .  A
C559        C564   1.402       .  A
C559        H566   1.080       .  S
C560        C561   1.445       .  A
C561        C562   1.389       .  A
C561       Br568   1.933       .  S
C562        C563   1.384       .  A
C562        H567   1.080       .  S
C563        C564   1.417       .  A
C564       Br565   1.918       .  S
C569        C570   1.416       .  A
C569        C574   1.402       .  A
C569        H576   1.083       .  S
C570        C571   1.402   1_455  A
C571        C572   1.371   1_655  A
C571      Br1994   1.927       .  S
C572        C573   1.408       .  A
C572       H1993   1.083   1_455  S
C573        C574   1.405       .  A
C574       Br575   1.903       .  S
H577       C1988   1.083       .  S
Br578      C1987   1.927       .  S
C579        C580   1.429       .  A
C579        C584   1.402       .  A
C579       H2002   1.079   1_455  S
C580        C581   1.429       .  A
C581        C582   1.415       .  A
C581       Br588   1.912       .  S
C582        C583   1.405       .  A
C582        H587   1.084       .  S
C583        C584   1.399       .  A
C584      Br2001   1.920   1_455  S
Br585      C2000   1.920       .  S
H586       C1995   1.079       .  S
C589        C590   1.416       .  A
C589        C594   1.395       .  A
C589        H596   1.084       .  S
C590        C591   1.427       .  A
C591        C592   1.410       .  A
C591       Br598   1.902       .  S
C592        C593   1.400       .  A
C592        H597   1.082       .  S
C593        C594   1.411       .  A
C594       Br595   1.915       .  S
C599        C600   1.418       .  A
C599        C604   1.397       .  A
C599        H606   1.083       .  S
C600        C601   1.397       .  A
C601        C602   1.399       .  A
C601       Br608   1.921       .  S
C602        C603   1.425       .  A
C602        H607   1.066       .  S
C603        C604   1.416       .  A
C604       Br605   1.928       .  S
C609        C610   1.381       .  A
C609        C614   1.391       .  A
C609        H616   1.081       .  S
C610        C611   1.408       .  A
C611        C612   1.410       .  A
C611       Br972   1.917       .  S
C612        C613   1.408       .  A
C612       H1325   1.074       .  S
C613        C614   1.454       .  A
C614       Br615   1.937   1_545  S
H617       C1320   1.074       .  S
Br618       C965   1.917   1_556  S
C619       C1328   1.412       .  A
C619       C1332   1.429       .  A
C620       C1327   1.412   1_545  A
C620        C621   1.403       .  A
C621        C622   1.405       .  A
C621       Br628   1.922       .  S
C622        C623   1.431       .  A
C622        H627   1.079       .  S
C623        C624   1.429   1_545  A
C624       C1327   1.429       .  A
C624      Br1333   1.912       .  S
Br625      C1332   1.912       .  S
C629        C634   1.375       .  A
C629        H636   1.085       .  S
C630        C631   1.400       .  A
C631        C632   1.402       .  A
C631      Br2054   1.905       .  S
C632        C633   1.419       .  A
C632        H637   1.077       .  S
C634       Br635   1.933       .  S
Br638      C2047   1.905   1_455  S
C639        C644   1.410       .  A
C639        H646   1.077       .  S
C640        C641   1.421       .  A
C641        C642   1.393       .  A
C641       Br648   1.929       .  S
C642        H647   1.082       .  S
C643        C644   1.405       .  A
C644      Br2061   1.919       .  S
Br645      C2060   1.919       .  S
C649        C650   1.401       .  A
C649        C654   1.423       .  A
C649        H656   1.083       .  S
C650        C651   1.427       .  A
C651        C652   1.383       .  A
C652        C653   1.399       .  A
C652        H657   1.070       .  S
C653        C654   1.452       .  A
C654       Br655   1.924       .  S
C659        C660   1.396       .  A
C659        C664   1.411       .  A
C659        H666   1.083       .  S
C660        C661   1.421       .  A
C661        C662   1.375       .  A
C661       Br668   1.935   1_556  S
C662        C663   1.406       .  A
C662        H667   1.078       .  S
C663        C664   1.442       .  A
C664       Br665   1.917       .  S
C669        C670   1.408   1_455  A
C669        C674   1.397       .  A
C669        H676   1.084       .  S
C670        C671   1.408       .  A
C671       C2088   1.414       .  A
C671      Br2802   1.908   1_545  S
C672       C2087   1.414       .  A
C672       C2089   1.422       .  A
C672        H677   1.079       .  S
C673       C1771   1.573       .  S
C673       C2088   1.422   1_455  A
C673        C674   1.424       .  A
C674       Br675   1.921       .  S
Br678      C2795   1.908       .  S
C679       C2096   1.396       .  A
C679        C684   1.406       .  A
C679        H686   1.084       .  S
C680       C2095   1.396       .  A
C680        C681   1.389   1_655  A
C681        C682   1.369       .  A
C681       Br688   1.926       .  S
C682        C683   1.423       .  A
C682        H687   1.073       .  S
C683       C1771   1.572       .  S
C683       C2100   1.438   1_455  A
C684       C2099   1.438       .  A
C684       Br685   1.920       .  S
C689        C690   1.397       .  A
C689        C694   1.389       .  A
C689        H696   1.086       .  S
C690        C691   1.388       .  A
C691        C692   1.397       .  A
C691       Br698   1.917       .  S
C692        C693   1.436       .  A
C692        H697   1.079       .  S
C693        C694   1.438       .  A
C694       Br695   1.934       .  S
C699        C700   1.427       .  A
C699        C704   1.398       .  A
C699        H706   1.082       .  S
C700       C1771   1.588       .  S
C700        C701   1.440       .  A
C701        C702   1.411       .  A
C701       Br708   1.926       .  S
C702        C703   1.398       .  A
C702        H707   1.085       .  S
C703        C704   1.399       .  A
C704       Br705   1.920       .  S
C709       C2443   1.573       .  S
C709       C2453   1.572       .  S
C709       C1047   1.578       .  S
C709       C2470   1.588       .  S
O710       Zr746   2.433       .  S
O710       C2137   1.290       .  A
O711       Zr745   2.509       .  S
O711        C722   1.305       .  A
O712       Zr718   2.549       .  S
O712        C723   1.312       .  A
O713        C724   1.305       .  A
O714       Zr748   2.432   1_455  S
O714        C724   1.292       .  A
O715      Zr1101   2.344       .  S
O715        C723   1.267       .  A
O716        C722   1.286   1_545  A
O717       Zr718   2.379       .  S
O717        C721   1.284   1_455  A
Zr718       O720   2.339       .  S
Zr718       O726   2.313       .  S
O719       Zr745   2.331       .  S
O719       Zr748   2.339   1_455  S
O720      Zr2162   2.349   1_455  S
O720      Zr1101   2.336       .  S
C721       O2126   1.290       .  A
C721       C1034   1.448       .  S
C722        C947   1.492       .  S
C723       C1004   1.509       .  S
C724        C937   1.492       .  S
H725        O726   0.964       .  S
O726      Zr1101   2.318       .  S
H727       O2144   0.964       .  S
O728      Zr1454   2.369   1_565  S
O728       Zr748   2.337       .  S
O728       H2143   0.964       .  S
O729      Zr1099   2.486   1_554  S
O729        C752   1.299       .  A
O730       Zr746   2.547       .  S
O730       C1107   1.313       .  A
O731       Zr747   2.506       .  S
O731        C754   1.302       .  A
O732       Zr748   2.521   1_455  S
O732        C755   1.305       .  A
O733      Zr2164   2.512       .  S
O733        C756   1.298       .  A
O734       Zr747   2.459       .  S
O734       C2527   1.294   1_454  A
O735       C2174   1.309       .  A
O736       Zr749   2.541       .  S
O736        C759   1.311   1_554  A
O737       Zr747   2.384       .  S
O737        C758   1.284   1_455  A
O738      Zr2164   2.358       .  S
O738       C1113   1.280       .  A
O739      Zr1099   2.350   1_544  S
O740       Zr746   2.381       .  S
O740        C757   1.283       .  A
O741        C756   1.260   1_545  A
O742       Zr745   2.343       .  S
O742        C755   1.266       .  A
O743      Zr2165   2.303   1_455  S
O743        C752   1.269       .  A
O744       Zr749   2.406       .  S
Zr745      O1083   2.486       .  S
Zr745      O1093   2.350   1_565  S
Zr745      O1105   2.323   1_565  S
Zr745       O763   2.333       .  S
Zr746      O2136   2.349       .  S
Zr746      O1436   2.369       .  S
Zr746      O1115   2.332       .  S
Zr747      O1069   2.344   1_554  S
Zr747      O1074   2.336   1_554  S
Zr747      O1080   2.318   1_554  S
Zr747      O2177   2.363   1_455  S
Zr748      O2149   2.512       .  S
Zr748      O2154   2.358       .  S
Zr748      O2166   2.364       .  S
Zr748       O763   2.342   1_655  S
Zr749      O2159   2.303       .  S
Zr749      O1104   2.318   1_554  S
Zr749      O2167   2.355   1_565  S
Zr749      O2533   2.343   1_554  S
O750      Zr2164   2.364       .  S
O750      Zr1103   2.318       .  S
O751      Zr1099   2.323   1_544  S
O751      Zr2165   2.355   1_445  S
C752        C927   1.456       .  S
C753       O1084   1.313   1_554  A
C753        C974   1.508       .  S
C754        C964   1.462       .  S
C755       C1014   1.485       .  S
C756        C954   1.488       .  S
C757       O2504   1.294       .  A
C757        C984   1.456       .  S
C758       O2151   1.309       .  A
C758       C1024   1.505       .  S
C759       O1092   1.280       .  A
C759        C997   1.509       .  S
H760        O761   0.966       .  S
O761      Zr1100   2.332   1_554  S
O761      Zr2163   2.363       .  S
H762       O1117   0.963   1_554  S
O763      Zr2519   2.343   1_455  S
O763       H1116   0.963       .  S
C764        C914   1.567       .  S
C764        C967   1.570       .  S
C764        C977   1.608       .  S
O765       Zr801   2.502       .  S
O765        C776   1.304       .  A
O766       Zr800   2.542       .  S
O766        C777   1.311       .  A
O767       Zr773   2.492       .  S
O767        C778   1.302       .  A
O768       Zr773   2.523       .  S
O768        C779   1.308       .  A
O769       Zr803   2.312       .  S
O769        C779   1.269       .  A
O770       Zr802   2.374       .  S
O770        C778   1.283       .  A
O771       Zr773   2.411       .  S
O771        C777   1.286       .  A
O772       Zr773   2.388       .  S
O772        C776   1.283       .  A
Zr773       O774   2.320       .  S
Zr773       O775   2.328       .  S
Zr773       O783   2.339       .  S
Zr773       O781   2.357       .  S
O774       Zr800   2.358       .  S
O774       Zr803   2.348       .  S
O775       Zr801   2.336       .  S
O775       Zr802   2.346       .  S
C776       C1057   1.476       .  S
C777        C834   1.522       .  S
C778        C894   1.480       .  S
C779        C917   1.460       .  S
H780        O781   0.965       .  S
O781       Zr800   2.339       .  S
O781       Zr802   2.332       .  S
H782        O783   0.965       .  S
O783       Zr801   2.319       .  S
O783       Zr803   2.333       .  S
O784       Zr800   2.532       .  S
O784        C807   1.310       .  A
O785       Zr801   2.472       .  S
O785        C808   1.298       .  A
O786       Zr802   2.508       .  S
O786        C809   1.306       .  A
O787       Zr803   2.499       .  S
O787        C810   1.302       .  A
O788       Zr803   2.502       .  S
O788        C811   1.303       .  A
O789       Zr802   2.485       .  S
O789        C812   1.301       .  A
O790       Zr804   2.482       .  S
O790        C813   1.294       .  A
O791       Zr804   2.463       .  S
O791        C814   1.294       .  A
O792       Zr802   2.377       .  S
O792        C813   1.266       .  A
O793       Zr803   2.378       .  S
O793        C814   1.283       .  A
O794       Zr800   2.434       .  S
O794        C809   1.289       .  A
O795       Zr801   2.395       .  S
O795        C812   1.282       .  A
O796       Zr801   2.438       .  S
O796        C811   1.291       .  A
O797       Zr800   2.351       .  S
O797        C810   1.278       .  A
O798       Zr804   2.358       .  S
O798        C807   1.277       .  A
O799       Zr804   2.445       .  S
O799        C808   1.293       .  A
Zr800       O806   2.331       .  S
Zr800       O818   2.358       .  S
Zr801       O805   2.345       .  S
Zr801       O816   2.355       .  S
Zr802       O806   2.322       .  S
Zr802       O816   2.366       .  S
Zr803       O805   2.321       .  S
Zr803       O818   2.323       .  S
Zr804       O805   2.338       .  S
Zr804       O806   2.356       .  S
Zr804       O818   2.349       .  S
Zr804       O816   2.312       .  S
C807        C884   1.492       .  S
C808        C847   1.485       .  S
C809        C907   1.502       .  S
C810        C854   1.457       .  S
C811        C877   1.519       .  S
C812        C824   1.467       .  S
C813        C867   1.463       .  S
C814       C1044   1.466       .  S
H815        O816   0.963       .  S
H817        O818   0.964       .  S
C819        C827   1.558       .  S
C819       C1191   1.627       .  S
C819       C1007   1.600       .  S
C819       C1017   1.569       .  S
C820       C2303   1.583   1_455  S
C820        C897   1.584       .  S
C820        C924   1.550       .  S
C820        C934   1.590       .  S
C821        C844   1.593       .  S
C821       C1211   1.563       .  S
C821        C987   1.558       .  S
C821        C994   1.581       .  S
C822        C864   1.583       .  S
C822        C944   1.569       .  S
C822        C957   1.578       .  S
C823        C824   1.406       .  A
C823        C828   1.395       .  A
C823        H830   1.072       .  S
C824        C825   1.385       .  A
C825        C826   1.392       .  A
C825       Br832   1.913       .  S
C826        C827   1.436       .  A
C826        H831   1.075       .  S
C827        C828   1.418       .  A
C828       Br829   1.930       .  S
C833        C834   1.408       .  A
C833        C838   1.429       .  A
C833        H840   1.083       .  S
C834        C835   1.416       .  A
C835        C836   1.395       .  A
C835       Br842   1.929       .  S
C836        C837   1.414   1_554  A
C836        H841   1.066       .  S
C837       C1173   1.627       .  S
C837        C838   1.448   1_556  A
C838      Br1193   1.925   1_554  S
Br839      C1192   1.925       .  S
C843        C844   1.430       .  A
C843        C848   1.397       .  A
C843        H850   1.075       .  S
C844        C845   1.430       .  A
C845        C846   1.414       .  A
C845       Br852   1.919       .  S
C846        C847   1.405       .  A
C846        H851   1.083       .  S
C847        C848   1.396       .  A
C848       Br849   1.923       .  S
C853        C854   1.389       .  A
C853        C858   1.394       .  A
C853        H860   1.085       .  S
C854        C855   1.410       .  A
C855        C856   1.398       .  A
C855       Br862   1.910       .  S
C856        C857   1.408       .  A
C856        H861   1.079       .  S
C857       C1175   1.563   1_554  S
C857        C858   1.442       .  A
C858       Br859   1.930       .  S
C863        C864   1.403       .  A
C863        C868   1.395       .  A
C863        H870   1.074       .  S
C864        C865   1.445       .  A
C865        C866   1.398       .  A
C865       Br872   1.936       .  S
C866        C867   1.391       .  A
C866        H871   1.085       .  S
C867        C868   1.405       .  A
C868       Br869   1.908       .  S
C873        C874   1.426       .  A
C873        C878   1.404       .  A
C873        H880   1.075       .  S
C874        C875   1.450       .  A
C875        C876   1.420       .  A
C875       Br882   1.934       .  S
C876        C877   1.405       .  A
C876        H881   1.083       .  S
C877        C878   1.414       .  A
C878       Br879   1.928       .  S
C883        C884   1.403       .  A
C883        C888   1.415       .  A
C883        H890   1.083       .  S
C884        C885   1.419       .  A
C885        C886   1.390       .  A
C885       Br892   1.932       .  S
C886        C887   1.410       .  A
C886        H891   1.078       .  S
C887       C2236   1.583       .  S
C887        C888   1.442       .  A
C888       Br889   1.927       .  S
C893        C894   1.401       .  A
C893        C898   1.383       .  A
C893        H900   1.084       .  S
C894        C895   1.407       .  A
C895        C896   1.419       .  A
C895       Br902   1.903       .  S
C896        C897   1.426       .  A
C896        H901   1.078       .  S
C897        C898   1.418       .  A
C898       Br899   1.931       .  S
C903        C904   1.417       .  A
C903        C908   1.415       .  A
C903        H910   1.082       .  S
C904        C905   1.448       .  A
C905        C906   1.407       .  A
C905       Br912   1.933       .  S
C906        C907   1.393       .  A
C906        H911   1.085       .  S
C907        C908   1.415       .  A
C908       Br909   1.917       .  S
C913        C914   1.404       .  A
C913        C918   1.402       .  A
C913        H920   1.080       .  S
C914        C915   1.445       .  A
C915        C916   1.389       .  A
C915       Br922   1.933       .  S
C916        C917   1.384       .  A
C916        H921   1.080       .  S
C917        C918   1.417       .  A
C918       Br919   1.918       .  S
C923        C924   1.416       .  A
C923        C928   1.402       .  A
C923        H930   1.083       .  S
C924        C925   1.402   1_455  A
C925        C926   1.371   1_655  A
C925      Br2348   1.927       .  S
C926        C927   1.408       .  A
C926       H2347   1.083   1_455  S
C927        C928   1.405       .  A
C928       Br929   1.903       .  S
H931       C2342   1.083       .  S
Br932      C2341   1.927       .  S
C933        C934   1.429       .  A
C933        C938   1.402       .  A
C933       H2356   1.079   1_455  S
C934        C935   1.429       .  A
C935        C936   1.415       .  A
C935       Br942   1.912       .  S
C936        C937   1.405       .  A
C936        H941   1.084       .  S
C937        C938   1.399       .  A
C938      Br2355   1.920   1_455  S
Br939      C2354   1.920       .  S
H940       C2349   1.079       .  S
C943        C944   1.416       .  A
C943        C948   1.395       .  A
C943        H950   1.084       .  S
C944        C945   1.427       .  A
C945        C946   1.410       .  A
C945       Br952   1.902   1_565  S
C946        C947   1.400       .  A
C946        H951   1.082       .  S
C947        C948   1.411       .  A
C948       Br949   1.915       .  S
C953        C954   1.418   1_545  A
C953        C958   1.397       .  A
C953        H960   1.083       .  S
C954        C955   1.397       .  A
C955        C956   1.399       .  A
C955       Br962   1.921       .  S
C956        C957   1.425       .  A
C956        H961   1.066       .  S
C957        C958   1.416   1_565  A
C958       Br959   1.928       .  S
C963        C964   1.381       .  A
C963        C968   1.391       .  A
C963        H970   1.081       .  S
C964        C965   1.408       .  A
C965        C966   1.410       .  A
C966        C967   1.408       .  A
C967        C968   1.454       .  A
C968       Br969   1.937       .  S
C973       H1334   1.084   1_554  S
C974        C975   1.403       .  A
C975        C976   1.405       .  A
C975       Br982   1.922       .  S
C976        C977   1.431       .  A
C976        H981   1.079       .  S
C977        C978   1.429       .  A
H980       C1327   1.084       .  S
C983       C1338   1.389       .  A
C983        C988   1.375       .  A
C983        H990   1.085   1_556  S
C984       C1337   1.389       .  A
C984        C985   1.400       .  A
C985        C986   1.402       .  A
C985      Br2408   1.905       .  S
C986        C987   1.419       .  A
C986        H991   1.077       .  S
C987       C1342   1.434       .  A
C988       C1341   1.434       .  A
C988       Br989   1.933       .  S
Br992      C2401   1.905   1_455  S
C993       C1348   1.433   1_554  A
C993        C998   1.410       .  A
C993       H1000   1.077       .  S
C994       C1347   1.433       .  A
C994        C995   1.421       .  A
C995        C996   1.393       .  A
C995      Br1002   1.929       .  S
C996       C1351   1.416       .  A
C996       H1001   1.082       .  S
C997       C1350   1.416       .  A
C997        C998   1.405   1_556  A
C998      Br2415   1.919       .  S
Br999      C2414   1.919       .  S
C1003      C1004   1.401       .  A
C1003      C1008   1.423       .  A
C1003      H1010   1.083       .  S
C1004      C1005   1.427       .  A
C1005      C1006   1.383       .  A
C1005     Br1366   1.941       .  S
C1006      C1007   1.399       .  A
C1006      H1011   1.070       .  S
C1007      C1008   1.452       .  A
C1008     Br1009   1.924       .  S
Br1012     C1359   1.941   1_554  S
C1013      C1014   1.396       .  A
C1013      C1018   1.411       .  A
C1013      H1020   1.083       .  S
C1014      C1015   1.421       .  A
C1015      C1016   1.375       .  A
C1015     Br1022   1.935       .  S
C1016      C1017   1.406       .  A
C1016      H1021   1.078       .  S
C1017      C1018   1.442       .  A
C1018     Br1019   1.917       .  S
C1023      C1024   1.408   1_455  A
C1023      C1028   1.397       .  A
C1023      H1030   1.084       .  S
C1024      C1025   1.408       .  A
C1025      C2442   1.414       .  A
C1025     Br1740   1.908       .  S
C1026      C2441   1.414       .  A
C1026      C2443   1.422       .  A
C1026      H1031   1.079       .  S
C1027      C2125   1.573       .  S
C1027      C2442   1.422   1_455  A
C1027      C1028   1.424       .  A
C1028     Br1029   1.921       .  S
Br1032     C1733   1.908   1_565  S
C1033      C2450   1.396       .  A
C1033      C1038   1.406       .  A
C1033      H1040   1.084       .  S
C1034      C2449   1.396       .  A
C1034      C1035   1.389   1_655  A
C1035      C1036   1.369       .  A
C1035     Br1042   1.926       .  S
C1036      C1037   1.423       .  A
C1036      H1041   1.073       .  S
C1037      C2125   1.572       .  S
C1037      C2454   1.438   1_455  A
C1038      C2453   1.438       .  A
C1038     Br1039   1.920       .  S
C1043      C1044   1.397       .  A
C1043      C1048   1.389       .  A
C1043      H1050   1.086       .  S
C1044      C1045   1.388       .  A
C1045      C1046   1.397       .  A
C1045     Br1052   1.917       .  S
C1046      C1047   1.436       .  A
C1046      H1051   1.079       .  S
C1047      C1048   1.438       .  A
C1048     Br1049   1.934       .  S
C1053      C1054   1.427       .  A
C1053      C1058   1.398       .  A
C1053      H1060   1.082       .  S
C1054      C2125   1.588       .  S
C1054      C1055   1.440       .  A
C1055      C1056   1.411       .  A
C1055     Br1062   1.926       .  S
C1056      C1057   1.398       .  A
C1056      H1061   1.085       .  S
C1057      C1058   1.399       .  A
C1058     Br1059   1.920       .  S
C1063      C2797   1.573       .  S
C1063      C2807   1.572       .  S
C1063      C1401   1.578       .  S
C1063      C2824   1.588       .  S
O1064     Zr1100   2.433       .  S
O1064      C2491   1.290       .  A
O1065     Zr1099   2.509       .  S
O1065      C1076   1.305       .  A
O1066     Zr1072   2.549       .  S
O1066      C1077   1.312       .  A
O1067      C1078   1.305       .  A
O1068     Zr1102   2.432   1_455  S
O1068      C1078   1.292       .  A
O1069      C1077   1.267       .  A
O1070      C1076   1.286   1_545  A
O1071     Zr1072   2.379       .  S
O1071      C1075   1.284   1_455  A
Zr1072     O1074   2.339       .  S
Zr1072     O1080   2.313       .  S
O1073     Zr1099   2.331       .  S
O1073     Zr1102   2.339   1_455  S
O1074     Zr2516   2.349   1_455  S
C1075      O2480   1.290       .  A
C1075      C1388   1.448       .  S
C1076      C1301   1.492       .  S
C1077      C1358   1.509       .  S
C1078      C1291   1.492       .  S
H1079      O1080   0.964       .  S
H1081      O2498   0.964       .  S
O1082     Zr1808   2.369   1_565  S
O1082     Zr1102   2.337       .  S
O1082      H2497   0.964       .  S
O1083      C1106   1.299       .  A
O1084     Zr1100   2.547       .  S
O1085     Zr1101   2.506       .  S
O1085      C1108   1.302       .  A
O1086     Zr1102   2.521   1_455  S
O1086      C1109   1.305       .  A
O1087     Zr2518   2.512       .  S
O1087      C1110   1.298       .  A
O1088     Zr1101   2.459       .  S
O1088      C2173   1.294   1_455  A
O1089      C2528   1.309       .  A
O1090     Zr1103   2.541       .  S
O1090      C1113   1.311       .  A
O1091     Zr1101   2.384       .  S
O1091      C1112   1.284   1_455  A
O1092     Zr2518   2.358       .  S
O1094     Zr1100   2.381       .  S
O1094      C1111   1.283       .  A
O1095      C1110   1.260   1_545  A
O1096     Zr1099   2.343       .  S
O1096      C1109   1.266       .  A
O1097     Zr2519   2.303   1_455  S
O1097      C1106   1.269       .  A
O1098     Zr1103   2.406       .  S
Zr1099     O1117   2.333       .  S
Zr1100     O2490   2.349       .  S
Zr1100     O1790   2.369       .  S
Zr1101     O2531   2.363   1_455  S
Zr1102     O2503   2.512       .  S
Zr1102     O2508   2.358       .  S
Zr1102     O2520   2.364       .  S
Zr1102     O1117   2.342   1_655  S
Zr1103     O2513   2.303       .  S
Zr1103     O2521   2.355   1_565  S
Zr1103     O2179   2.343       .  S
O1104     Zr2518   2.364       .  S
O1105     Zr2519   2.355   1_445  S
C1106      C1281   1.456       .  S
C1107      C1328   1.508       .  S
C1108      C1318   1.462       .  S
C1109      C1368   1.485       .  S
C1110      C1308   1.488       .  S
C1111      O2150   1.294   1_556  A
C1111      C1338   1.456       .  S
C1112      O2505   1.309       .  A
C1112      C1378   1.505       .  S
C1113      C1351   1.509       .  S
H1114      O1115   0.966       .  S
O1115     Zr2517   2.363       .  S
O1117     Zr2165   2.343   1_456  S
C1118      C1268   1.567       .  S
C1118      C1321   1.570       .  S
C1118      C1331   1.608       .  S
O1119     Zr1155   2.502       .  S
O1119      C1130   1.304       .  A
O1120     Zr1154   2.542       .  S
O1120      C1131   1.311       .  A
O1121     Zr1127   2.492       .  S
O1121      C1132   1.302       .  A
O1122     Zr1127   2.523       .  S
O1122      C1133   1.308       .  A
O1123     Zr1157   2.312       .  S
O1123      C1133   1.269       .  A
O1124     Zr1156   2.374       .  S
O1124      C1132   1.283       .  A
O1125     Zr1127   2.411       .  S
O1125      C1131   1.286       .  A
O1126     Zr1127   2.388       .  S
O1126      C1130   1.283       .  A
Zr1127     O1128   2.320       .  S
Zr1127     O1129   2.328       .  S
Zr1127     O1137   2.339       .  S
Zr1127     O1135   2.357       .  S
O1128     Zr1154   2.358       .  S
O1128     Zr1157   2.348       .  S
O1129     Zr1155   2.336       .  S
O1129     Zr1156   2.346       .  S
C1130      C1411   1.476       .  S
C1131      C1188   1.522       .  S
C1132      C1248   1.480       .  S
C1133      C1271   1.460       .  S
H1134      O1135   0.965       .  S
O1135     Zr1154   2.339       .  S
O1135     Zr1156   2.332       .  S
H1136      O1137   0.965       .  S
O1137     Zr1155   2.319       .  S
O1137     Zr1157   2.333       .  S
O1138     Zr1154   2.532       .  S
O1138      C1161   1.310       .  A
O1139     Zr1155   2.472       .  S
O1139      C1162   1.298       .  A
O1140     Zr1156   2.508       .  S
O1140      C1163   1.306       .  A
O1141     Zr1157   2.499       .  S
O1141      C1164   1.302       .  A
O1142     Zr1157   2.502       .  S
O1142      C1165   1.303       .  A
O1143     Zr1156   2.485       .  S
O1143      C1166   1.301       .  A
O1144     Zr1158   2.482       .  S
O1144      C1167   1.294       .  A
O1145     Zr1158   2.463       .  S
O1145      C1168   1.294       .  A
O1146     Zr1156   2.377       .  S
O1146      C1167   1.266       .  A
O1147     Zr1157   2.378       .  S
O1147      C1168   1.283       .  A
O1148     Zr1154   2.434       .  S
O1148      C1163   1.289       .  A
O1149     Zr1155   2.395       .  S
O1149      C1166   1.282       .  A
O1150     Zr1155   2.438       .  S
O1150      C1165   1.291       .  A
O1151     Zr1154   2.351       .  S
O1151      C1164   1.278       .  A
O1152     Zr1158   2.358       .  S
O1152      C1161   1.277       .  A
O1153     Zr1158   2.445       .  S
O1153      C1162   1.293       .  A
Zr1154     O1160   2.331       .  S
Zr1154     O1172   2.358       .  S
Zr1155     O1159   2.345       .  S
Zr1155     O1170   2.355       .  S
Zr1156     O1160   2.322       .  S
Zr1156     O1170   2.366       .  S
Zr1157     O1159   2.321       .  S
Zr1157     O1172   2.323       .  S
Zr1158     O1159   2.338       .  S
Zr1158     O1160   2.356       .  S
Zr1158     O1172   2.349       .  S
Zr1158     O1170   2.312       .  S
C1161      C1238   1.492       .  S
C1162      C1201   1.485       .  S
C1163      C1261   1.502       .  S
C1164      C1208   1.457       .  S
C1165      C1231   1.519       .  S
C1166      C1178   1.467       .  S
C1167      C1221   1.463       .  S
C1168      C1398   1.466       .  S
H1169      O1170   0.963       .  S
H1171      O1172   0.964       .  S
C1173      C1181   1.558       .  S
C1173      C1361   1.600       .  S
C1173      C1371   1.569       .  S
C1174      C2657   1.583   1_455  S
C1174      C1251   1.584       .  S
C1174      C1278   1.550       .  S
C1174      C1288   1.590       .  S
C1175      C1198   1.593       .  S
C1175      C1341   1.558       .  S
C1175      C1348   1.581       .  S
C1176      C1218   1.583       .  S
C1176      C1298   1.569       .  S
C1176      C1311   1.578       .  S
C1177      C1178   1.406       .  A
C1177      C1182   1.395       .  A
C1177      H1184   1.072       .  S
C1178      C1179   1.385       .  A
C1179      C1180   1.392       .  A
C1179     Br1186   1.913       .  S
C1180      C1181   1.436       .  A
C1180      H1185   1.075       .  S
C1181      C1182   1.418       .  A
C1182     Br1183   1.930       .  S
C1187      C1188   1.408       .  A
C1187      C1192   1.429       .  A
C1187      H1194   1.083       .  S
C1188      C1189   1.416       .  A
C1189      C1190   1.395       .  A
C1189     Br1196   1.929       .  S
C1190      C1191   1.414       .  A
C1190      H1195   1.066       .  S
C1191      C1192   1.448       .  A
C1197      C1198   1.430       .  A
C1197      C1202   1.397       .  A
C1197      H1204   1.075       .  S
C1198      C1199   1.430       .  A
C1199      C1200   1.414       .  A
C1199     Br1206   1.919       .  S
C1200      C1201   1.405       .  A
C1200      H1205   1.083       .  S
C1201      C1202   1.396       .  A
C1202     Br1203   1.923       .  S
C1207      C1208   1.389       .  A
C1207      C1212   1.394       .  A
C1207      H1214   1.085       .  S
C1208      C1209   1.410       .  A
C1209      C1210   1.398       .  A
C1209     Br1216   1.910       .  S
C1210      C1211   1.408       .  A
C1210      H1215   1.079       .  S
C1211      C1212   1.442       .  A
C1212     Br1213   1.930       .  S
C1217      C1218   1.403       .  A
C1217      C1222   1.395       .  A
C1217      H1224   1.074       .  S
C1218      C1219   1.445       .  A
C1219      C1220   1.398       .  A
C1219     Br1226   1.936       .  S
C1220      C1221   1.391       .  A
C1220      H1225   1.085       .  S
C1221      C1222   1.405       .  A
C1222     Br1223   1.908       .  S
C1227      C1228   1.426       .  A
C1227      C1232   1.404       .  A
C1227      H1234   1.075       .  S
C1228      C1229   1.450       .  A
C1229      C1230   1.420       .  A
C1229     Br1236   1.934       .  S
C1230      C1231   1.405       .  A
C1230      H1235   1.083       .  S
C1231      C1232   1.414       .  A
C1232     Br1233   1.928       .  S
C1237      C1238   1.403       .  A
C1237      C1242   1.415       .  A
C1237      H1244   1.083       .  S
C1238      C1239   1.419       .  A
C1239      C1240   1.390       .  A
C1239     Br1246   1.932       .  S
C1240      C1241   1.410       .  A
C1240      H1245   1.078       .  S
C1241      C2590   1.583       .  S
C1241      C1242   1.442       .  A
C1242     Br1243   1.927       .  S
C1247      C1248   1.401       .  A
C1247      C1252   1.383       .  A
C1247      H1254   1.084       .  S
C1248      C1249   1.407       .  A
C1249      C1250   1.419       .  A
C1249     Br1256   1.903       .  S
C1250      C1251   1.426       .  A
C1250      H1255   1.078       .  S
C1251      C1252   1.418       .  A
C1252     Br1253   1.931       .  S
C1257      C1258   1.417       .  A
C1257      C1262   1.415       .  A
C1257      H1264   1.082       .  S
C1258      C1259   1.448       .  A
C1259      C1260   1.407       .  A
C1259     Br1266   1.933       .  S
C1260      C1261   1.393       .  A
C1260      H1265   1.085       .  S
C1261      C1262   1.415       .  A
C1262     Br1263   1.917       .  S
C1267      C1268   1.404       .  A
C1267      C1272   1.402       .  A
C1267      H1274   1.080       .  S
C1268      C1269   1.445       .  A
C1269      C1270   1.389       .  A
C1269     Br1276   1.933       .  S
C1270      C1271   1.384       .  A
C1270      H1275   1.080       .  S
C1271      C1272   1.417       .  A
C1272     Br1273   1.918       .  S
C1277      C1278   1.416       .  A
C1277      C1282   1.402       .  A
C1277      H1284   1.083       .  S
C1278      C1279   1.402   1_455  A
C1279      C1280   1.371   1_655  A
C1279     Br2702   1.927       .  S
C1280      C1281   1.408       .  A
C1280      H2701   1.083   1_455  S
C1281      C1282   1.405       .  A
C1282     Br1283   1.903       .  S
H1285      C2696   1.083       .  S
Br1286     C2695   1.927       .  S
C1287      C1288   1.429       .  A
C1287      C1292   1.402       .  A
C1287      H2710   1.079   1_455  S
C1288      C1289   1.429       .  A
C1289      C1290   1.415       .  A
C1289     Br1296   1.912       .  S
C1290      C1291   1.405       .  A
C1290      H1295   1.084       .  S
C1291      C1292   1.399       .  A
C1292     Br2709   1.920   1_455  S
Br1293     C2708   1.920       .  S
H1294      C2703   1.079       .  S
C1297      C1298   1.416       .  A
C1297      C1302   1.395       .  A
C1297      H1304   1.084       .  S
C1298      C1299   1.427       .  A
C1299      C1300   1.410       .  A
C1299     Br1306   1.902   1_565  S
C1300      C1301   1.400       .  A
C1300      H1305   1.082       .  S
C1301      C1302   1.411       .  A
C1302     Br1303   1.915       .  S
C1307      C1308   1.418   1_545  A
C1307      C1312   1.397       .  A
C1307      H1314   1.083       .  S
C1308      C1309   1.397       .  A
C1309      C1310   1.399       .  A
C1309     Br1316   1.921       .  S
C1310      C1311   1.425       .  A
C1310      H1315   1.066       .  S
C1311      C1312   1.416   1_565  A
C1312     Br1313   1.928       .  S
C1317      C1318   1.381       .  A
C1317      C1322   1.391       .  A
C1317      H1324   1.081       .  S
C1318      C1319   1.408       .  A
C1319      C1320   1.410       .  A
C1320      C1321   1.408       .  A
C1321      C1322   1.454       .  A
C1322     Br1323   1.937       .  S
C1328      C1329   1.403       .  A
C1329      C1330   1.405       .  A
C1329     Br1336   1.922       .  S
C1330      C1331   1.431       .  A
C1330      H1335   1.079       .  S
C1331      C1332   1.429       .  A
C1337      C1342   1.375       .  A
C1337      H1344   1.085       .  S
C1338      C1339   1.400       .  A
C1339      C1340   1.402       .  A
C1339     Br2762   1.905       .  S
C1340      C1341   1.419       .  A
C1340      H1345   1.077       .  S
C1342     Br1343   1.933       .  S
Br1346     C2755   1.905   1_455  S
C1347      C1352   1.410       .  A
C1347      H1354   1.077       .  S
C1348      C1349   1.421       .  A
C1349      C1350   1.393       .  A
C1349     Br1356   1.929       .  S
C1350      H1355   1.082       .  S
C1351      C1352   1.405       .  A
C1352     Br2769   1.919       .  S
Br1353     C2768   1.919       .  S
C1357      C1358   1.401       .  A
C1357      C1362   1.423       .  A
C1357      H1364   1.083       .  S
C1358      C1359   1.427       .  A
C1359      C1360   1.383       .  A
C1360      C1361   1.399       .  A
C1360      H1365   1.070       .  S
C1361      C1362   1.452       .  A
C1362     Br1363   1.924       .  S
C1367      C1368   1.396       .  A
C1367      C1372   1.411       .  A
C1367      H1374   1.083       .  S
C1368      C1369   1.421       .  A
C1369      C1370   1.375       .  A
C1369     Br1376   1.935   1_556  S
C1370      C1371   1.406       .  A
C1370      H1375   1.078       .  S
C1371      C1372   1.442       .  A
C1372     Br1373   1.917       .  S
C1377      C1378   1.408   1_455  A
C1377      C1382   1.397       .  A
C1377      H1384   1.084       .  S
C1378      C1379   1.408       .  A
C1379      C2796   1.414       .  A
C1379     Br2094   1.908       .  S
C1380      C2795   1.414       .  A
C1380      C2797   1.422       .  A
C1380      H1385   1.079       .  S
C1381      C2479   1.573       .  S
C1381      C2796   1.422   1_455  A
C1381      C1382   1.424       .  A
C1382     Br1383   1.921       .  S
Br1386     C2087   1.908   1_565  S
C1387      C2804   1.396       .  A
C1387      C1392   1.406       .  A
C1387      H1394   1.084       .  S
C1388      C2803   1.396       .  A
C1388      C1389   1.389   1_655  A
C1389      C1390   1.369       .  A
C1389     Br1396   1.926       .  S
C1390      C1391   1.423       .  A
C1390      H1395   1.073       .  S
C1391      C2479   1.572       .  S
C1391      C2808   1.438   1_455  A
C1392      C2807   1.438       .  A
C1392     Br1393   1.920       .  S
C1397      C1398   1.397       .  A
C1397      C1402   1.389       .  A
C1397      H1404   1.086       .  S
C1398      C1399   1.388       .  A
C1399      C1400   1.397       .  A
C1399     Br1406   1.917       .  S
C1400      C1401   1.436       .  A
C1400      H1405   1.079       .  S
C1401      C1402   1.438       .  A
C1402     Br1403   1.934       .  S
C1407      C1408   1.427       .  A
C1407      C1412   1.398       .  A
C1407      H1414   1.082       .  S
C1408      C2479   1.588       .  S
C1408      C1409   1.440       .  A
C1409      C1410   1.411       .  A
C1409     Br1416   1.926       .  S
C1410      C1411   1.398       .  A
C1410      H1415   1.085       .  S
C1411      C1412   1.399       .  A
C1412     Br1413   1.920       .  S
C1417      C1755   1.578   1_455  S
O1418     Zr1454   2.433       .  S
O1419     Zr1453   2.509       .  S
O1419      C1430   1.305       .  A
O1420     Zr1426   2.549       .  S
O1420      C1431   1.312       .  A
O1421     Zr2134   2.504       .  S
O1421      C1432   1.305       .  A
O1422     Zr1456   2.432       .  S
O1422      C1432   1.292       .  A
O1423     Zr1809   2.344       .  S
O1423      C1431   1.267       .  A
O1424     Zr2134   2.402       .  S
O1424      C1430   1.286       .  A
O1425     Zr1426   2.379       .  S
O1425      C1429   1.284       .  A
Zr1426     O2129   2.504   1_545  S
Zr1426     O2132   2.402       .  S
Zr1426     O2135   2.349   1_545  S
Zr1426     O1428   2.339       .  S
Zr1426     O2144   2.328   1_545  S
Zr1426     O1434   2.313       .  S
O1427     Zr2134   2.349       .  S
O1427     Zr1453   2.331       .  S
O1427     Zr1456   2.339       .  S
O1428     Zr1809   2.336       .  S
C1429      C1742   1.448       .  S
C1430      C1655   1.492       .  S
C1431      C1712   1.509       .  S
C1432      C1645   1.492       .  S
H1433      O1434   0.964       .  S
O1434     Zr2161   2.319   1_545  S
O1434     Zr1809   2.318       .  S
O1436     Zr2134   2.328       .  S
O1436     Zr1456   2.337       .  S
O1437     Zr1807   2.486   1_554  S
O1437      C1460   1.299       .  A
O1438     Zr1454   2.547       .  S
O1438      C1815   1.313       .  A
O1439     Zr1455   2.506       .  S
O1439      C1462   1.302       .  A
O1440     Zr1456   2.521       .  S
O1440      C1463   1.305       .  A
O1441      C1464   1.298       .  A
O1442     Zr1455   2.459       .  S
O1443     Zr2165   2.529   1_545  S
O1444     Zr1457   2.541       .  S
O1444      C1467   1.311   1_554  A
O1445     Zr1455   2.384       .  S
O1445      C1466   1.284       .  A
O1446      C1821   1.280       .  A
O1447     Zr1807   2.350   1_554  S
O1447      C2170   1.276       .  A
O1448     Zr1454   2.381       .  S
O1448      C1465   1.283       .  A
O1449     Zr2162   2.366       .  S
O1449      C1464   1.260       .  A
O1450     Zr1453   2.343       .  S
O1450      C1463   1.266       .  A
O1451      C1460   1.269       .  A
O1452     Zr1457   2.406       .  S
O1452      C2169   1.285       .  A
Zr1453     O1791   2.486       .  S
Zr1453     O1801   2.350       .  S
Zr1453     O2142   2.320       .  S
Zr1453     O1813   2.323       .  S
Zr1453     O1471   2.333       .  S
Zr1454     O2157   2.366       .  S
Zr1454     O2166   2.328   1_545  S
Zr1454     O1823   2.332       .  S
Zr1455     O1777   2.344   1_554  S
Zr1455     O1782   2.336   1_554  S
Zr1455     O1788   2.318   1_554  S
Zr1455     O2167   2.306       .  S
Zr1456     O1471   2.342       .  S
Zr1457     O2151   2.529       .  S
Zr1457     O1812   2.318   1_554  S
Zr1457     O2177   2.331       .  S
O1458     Zr2162   2.328       .  S
O1458     Zr1811   2.318       .  S
O1459     Zr1807   2.323   1_554  S
O1459     Zr2163   2.306       .  S
C1460      C1635   1.456       .  S
C1461      O1792   1.313   1_554  A
C1461      O2160   1.285   1_545  A
C1461      C1682   1.508       .  S
C1462      O2155   1.276       .  A
C1462      C1672   1.462       .  S
C1463      C1722   1.485       .  S
C1464      C1662   1.488       .  S
C1465      C1692   1.456       .  S
C1466      C1732   1.505       .  S
C1467      O1800   1.280       .  A
C1467      C1705   1.509       .  S
H1468      O1469   0.966       .  S
O1469     Zr1808   2.332   1_554  S
O1469     Zr2165   2.331   1_545  S
H1470      O1825   0.963   1_554  S
O1471      H1824   0.963       .  S
C1472      C2320   1.592   1_545  S
C1472      C1622   1.567       .  S
C1472      C1675   1.570       .  S
C1472      C1685   1.608       .  S
O1473     Zr1509   2.502       .  S
O1473      C1484   1.304       .  A
O1474     Zr1508   2.542       .  S
O1474      C1485   1.311       .  A
O1475     Zr1481   2.492       .  S
O1475      C1486   1.302       .  A
O1476     Zr1481   2.523       .  S
O1476      C1487   1.308       .  A
O1477     Zr1511   2.312       .  S
O1477      C1487   1.269       .  A
O1478     Zr1510   2.374       .  S
O1478      C1486   1.283       .  A
O1479     Zr1481   2.411       .  S
O1479      C1485   1.286       .  A
O1480     Zr1481   2.388       .  S
O1480      C1484   1.283       .  A
Zr1481     O1482   2.320       .  S
Zr1481     O1483   2.328       .  S
Zr1481     O1491   2.339       .  S
Zr1481     O1489   2.357       .  S
O1482     Zr1508   2.358       .  S
O1482     Zr1511   2.348       .  S
O1483     Zr1509   2.335       .  S
O1483     Zr1510   2.346       .  S
C1484      C1765   1.476       .  S
C1485      C1542   1.522       .  S
C1486      C1602   1.480       .  S
C1487      C1625   1.460       .  S
H1488      O1489   0.965       .  S
O1489     Zr1508   2.339       .  S
O1489     Zr1510   2.332       .  S
H1490      O1491   0.965       .  S
O1491     Zr1509   2.319       .  S
O1491     Zr1511   2.333       .  S
O1492     Zr1508   2.532       .  S
O1492      C1515   1.310       .  A
O1493     Zr1509   2.472       .  S
O1493      C1516   1.298       .  A
O1494     Zr1510   2.508       .  S
O1494      C1517   1.306       .  A
O1495     Zr1511   2.499       .  S
O1495      C1518   1.302       .  A
O1496     Zr1511   2.502       .  S
O1496      C1519   1.303       .  A
O1497     Zr1510   2.485       .  S
O1497      C1520   1.301       .  A
O1498     Zr1512   2.482       .  S
O1498      C1521   1.294       .  A
O1499     Zr1512   2.462       .  S
O1499      C1522   1.294       .  A
O1500     Zr1510   2.377       .  S
O1500      C1521   1.266       .  A
O1501     Zr1511   2.378       .  S
O1501      C1522   1.283       .  A
O1502     Zr1508   2.434       .  S
O1502      C1517   1.289       .  A
O1503     Zr1509   2.395       .  S
O1503      C1520   1.282       .  A
O1504     Zr1509   2.438       .  S
O1504      C1519   1.291       .  A
O1505     Zr1508   2.351       .  S
O1505      C1518   1.278       .  A
O1506     Zr1512   2.358       .  S
O1506      C1515   1.277       .  A
O1507     Zr1512   2.445       .  S
O1507      C1516   1.293       .  A
Zr1508     O1514   2.331       .  S
Zr1508     O1526   2.358       .  S
Zr1509     O1513   2.345       .  S
Zr1509     O1524   2.355       .  S
Zr1510     O1514   2.322       .  S
Zr1510     O1524   2.366       .  S
Zr1511     O1513   2.321       .  S
Zr1511     O1526   2.323       .  S
Zr1512     O1513   2.338       .  S
Zr1512     O1514   2.356       .  S
Zr1512     O1526   2.349       .  S
Zr1512     O1524   2.312       .  S
C1515      C1592   1.492       .  S
C1516      C1555   1.485       .  S
C1517      C1615   1.502       .  S
C1518      C1562   1.457       .  S
C1519      C1585   1.519       .  S
C1520      C1532   1.467       .  S
C1521      C1575   1.463       .  S
C1522      C1752   1.466       .  S
H1523      O1524   0.963       .  S
H1525      O1526   0.964       .  S
C1527      C1535   1.558       .  S
C1527      C1899   1.627       .  S
C1527      C1715   1.600       .  S
C1527      C1725   1.569       .  S
C1528      C1605   1.584       .  S
C1528      C1632   1.550       .  S
C1528      C1642   1.590       .  S
C1529      C1552   1.593       .  S
C1529      C1919   1.564       .  S
C1529      C1695   1.558       .  S
C1529      C1702   1.581       .  S
C1530      C1572   1.583       .  S
C1530      C2290   1.621       .  S
C1530      C1652   1.569       .  S
C1530      C1665   1.578       .  S
C1531      C1532   1.406       .  A
C1531      C1536   1.395       .  A
C1531      H1538   1.072       .  S
C1532      C1533   1.385       .  A
C1533      C1534   1.392       .  A
C1533     Br1540   1.913       .  S
C1534      C1535   1.436       .  A
C1534      H1539   1.075       .  S
C1535      C1536   1.418       .  A
C1536     Br1537   1.930       .  S
C1541      C1542   1.408       .  A
C1541      C1546   1.429       .  A
C1541      H1548   1.083       .  S
C1542      C1543   1.416       .  A
C1543      C1544   1.395       .  A
C1543     Br1550   1.929       .  S
C1544      C1545   1.414   1_554  A
C1544      H1549   1.066       .  S
C1545      C1881   1.627       .  S
C1545      C1546   1.448   1_556  A
C1546     Br1901   1.925   1_554  S
Br1547     C1900   1.925       .  S
C1551      C1552   1.430       .  A
C1551      C1556   1.397       .  A
C1551      H1558   1.075       .  S
C1552      C1553   1.430       .  A
C1553      C1554   1.414       .  A
C1553     Br1560   1.919       .  S
C1554      C1555   1.405       .  A
C1554      H1559   1.083       .  S
C1555      C1556   1.396       .  A
C1556     Br1557   1.923       .  S
C1561      C1562   1.389       .  A
C1561      C1566   1.394       .  A
C1561      H1568   1.085       .  S
C1562      C1563   1.410       .  A
C1563      C1564   1.398       .  A
C1563     Br1570   1.910       .  S
C1564      C1565   1.408       .  A
C1564      H1569   1.079       .  S
C1565      C1883   1.564   1_554  S
C1565      C1566   1.442       .  A
C1566     Br1567   1.930       .  S
C1571      C1572   1.403       .  A
C1571      C1576   1.395       .  A
C1571      H1578   1.074       .  S
C1572      C1573   1.445       .  A
C1573      C1574   1.398       .  A
C1573     Br1580   1.936       .  S
C1574      C1575   1.391       .  A
C1574      H1579   1.085       .  S
C1575      C1576   1.405       .  A
C1576     Br1577   1.908       .  S
C1581      C1582   1.426       .  A
C1581      C1586   1.404       .  A
C1581      H1588   1.075       .  S
C1582      C2238   1.621   1_545  S
C1582      C1583   1.450       .  A
C1583      C1584   1.420       .  A
C1583     Br1590   1.934       .  S
C1584      C1585   1.405       .  A
C1584      H1589   1.083       .  S
C1585      C1586   1.414       .  A
C1586     Br1587   1.928       .  S
C1591      C1592   1.403       .  A
C1591      C1596   1.415       .  A
C1591      H1598   1.083       .  S
C1592      C1593   1.419       .  A
C1593      C1594   1.390       .  A
C1593     Br1600   1.932       .  S
C1594      C1595   1.410       .  A
C1594      H1599   1.078       .  S
C1595      C1596   1.442       .  A
C1596     Br1597   1.927   1_655  S
C1601      C1602   1.401       .  A
C1601      C1606   1.383       .  A
C1601      H1608   1.084       .  S
C1602      C1603   1.407       .  A
C1603      C1604   1.419       .  A
C1603     Br1610   1.903       .  S
C1604      C1605   1.426       .  A
C1604      H1609   1.078       .  S
C1605      C1606   1.418       .  A
C1606     Br1607   1.931       .  S
C1611      C1612   1.417       .  A
C1611      C1616   1.415       .  A
C1611      H1618   1.082       .  S
C1612      C2180   1.592       .  S
C1612      C1613   1.448       .  A
C1613      C1614   1.407       .  A
C1613     Br1620   1.933       .  S
C1614      C1615   1.393       .  A
C1614      H1619   1.085       .  S
C1615      C1616   1.415       .  A
C1616     Br1617   1.917       .  S
C1621      C1622   1.404       .  A
C1621      C1626   1.402       .  A
C1621      H1628   1.080       .  S
C1622      C1623   1.445       .  A
C1623      C1624   1.389       .  A
C1623     Br1630   1.933       .  S
C1624      C1625   1.384       .  A
C1624      H1629   1.080       .  S
C1625      C1626   1.417       .  A
C1626     Br1627   1.918       .  S
C1631      C1632   1.416       .  A
C1631      C1636   1.402       .  A
C1631      H1638   1.083       .  S
C1632      C1633   1.402       .  A
C1633      C1634   1.371       .  A
C1634      C1635   1.408       .  A
C1635      C1636   1.405       .  A
C1636     Br1637   1.903       .  S
C1641      C1642   1.429       .  A
C1641      C1646   1.402       .  A
C1642      C1643   1.429       .  A
C1643      C1644   1.415       .  A
C1643     Br1650   1.912       .  S
C1644      C1645   1.405       .  A
C1644      H1649   1.084       .  S
C1645      C1646   1.399       .  A
C1651      C1652   1.416       .  A
C1651      C1656   1.395       .  A
C1651      H1658   1.084       .  S
C1652      C1653   1.427       .  A
C1653      C1654   1.410       .  A
C1653     Br1660   1.902       .  S
C1654      C1655   1.400       .  A
C1654      H1659   1.082       .  S
C1655      C1656   1.411       .  A
C1656     Br1657   1.915       .  S
C1661      C1662   1.418       .  A
C1661      C1666   1.397       .  A
C1661      H1668   1.083       .  S
C1662      C1663   1.397       .  A
C1663      C1664   1.399       .  A
C1663     Br1670   1.921       .  S
C1664      C1665   1.425       .  A
C1664      H1669   1.066       .  S
C1665      C1666   1.416       .  A
C1666     Br1667   1.928       .  S
C1671      C1672   1.381       .  A
C1671      C1676   1.391       .  A
C1671      H1678   1.081       .  S
C1672      C1673   1.408       .  A
C1673      C1674   1.410       .  A
C1673     Br2742   1.917   1_554  S
C1674      C1675   1.408       .  A
C1674      H2387   1.074       .  S
C1675      C1676   1.454       .  A
C1676     Br1677   1.937   1_545  S
H1679      C2382   1.074       .  S
Br1680     C2735   1.917       .  S
C1681      C2390   1.412       .  A
C1681      C2394   1.429       .  A
C1681      H2042   1.084   1_554  S
C1682      C2389   1.412   1_545  A
C1682      C1683   1.403       .  A
C1683      C1684   1.405       .  A
C1683     Br1690   1.922       .  S
C1684      C1685   1.431       .  A
C1684      H1689   1.079       .  S
C1685      C1686   1.429   1_545  A
C1686      C2389   1.429       .  A
C1686     Br2395   1.912       .  S
Br1687     C2394   1.912       .  S
H1688      C2035   1.084       .  S
C1691      C2046   1.389       .  A
C1691      C1696   1.375       .  A
C1691      H1698   1.085   1_556  S
C1692      C2045   1.389       .  A
C1692      C1693   1.400       .  A
C1693      C1694   1.402       .  A
C1694      C1695   1.419       .  A
C1694      H1699   1.077       .  S
C1695      C2050   1.434       .  A
C1696      C2049   1.434       .  A
C1696     Br1697   1.933       .  S
C1701      C2056   1.433   1_554  A
C1701      C1706   1.410       .  A
C1701      H1708   1.077       .  S
C1702      C2055   1.433       .  A
C1702      C1703   1.421       .  A
C1703      C1704   1.393       .  A
C1703     Br1710   1.929       .  S
C1704      C2059   1.416       .  A
C1704      H1709   1.082       .  S
C1705      C2058   1.416       .  A
C1705      C1706   1.405   1_556  A
C1711      C1712   1.401       .  A
C1711      C1716   1.423       .  A
C1711      H1718   1.083       .  S
C1712      C1713   1.427       .  A
C1713      C1714   1.383       .  A
C1713     Br2074   1.941       .  S
C1714      C1715   1.399       .  A
C1714      H1719   1.070       .  S
C1715      C1716   1.452       .  A
C1716     Br1717   1.924       .  S
Br1720     C2067   1.941   1_554  S
C1721      C1722   1.396       .  A
C1721      C1726   1.411       .  A
C1721      H1728   1.083       .  S
C1722      C1723   1.421       .  A
C1723      C1724   1.375       .  A
C1723     Br1730   1.935       .  S
C1724      C1725   1.406       .  A
C1724      H1729   1.078       .  S
C1725      C1726   1.442       .  A
C1726     Br1727   1.917       .  S
C1731      C1732   1.408       .  A
C1731      C1736   1.397       .  A
C1731      H1738   1.084       .  S
C1732      C1733   1.408       .  A
C1734      H1739   1.079       .  S
C1735      C1736   1.424       .  A
C1736     Br1737   1.921       .  S
C1741      C1746   1.406       .  A
C1741      H1748   1.084       .  S
C1742      C1743   1.389       .  A
C1743      C1744   1.369       .  A
C1743     Br1750   1.926       .  S
C1744      C1745   1.423       .  A
C1744      H1749   1.073       .  S
C1746     Br1747   1.920       .  S
C1751      C1752   1.397       .  A
C1751      C1756   1.389       .  A
C1751      H1758   1.086       .  S
C1752      C1753   1.388       .  A
C1753      C1754   1.397       .  A
C1753     Br1760   1.917       .  S
C1754      C1755   1.436       .  A
C1754      H1759   1.079       .  S
C1755      C1756   1.438       .  A
C1756     Br1757   1.934       .  S
C1761      C1762   1.427       .  A
C1761      C1766   1.398       .  A
C1761      H1768   1.082       .  S
C1762      C1763   1.440       .  A
C1763      C1764   1.411       .  A
C1763     Br1770   1.926       .  S
C1764      C1765   1.398       .  A
C1764      H1769   1.085       .  S
C1765      C1766   1.399       .  A
C1766     Br1767   1.920       .  S
C1771      C2109   1.578   1_455  S
O1772     Zr1808   2.433       .  S
O1773     Zr1807   2.509       .  S
O1773      C1784   1.305       .  A
O1774     Zr1780   2.549       .  S
O1774      C1785   1.312       .  A
O1775     Zr2488   2.504       .  S
O1775      C1786   1.305       .  A
O1776     Zr1810   2.432       .  S
O1776      C1786   1.292       .  A
O1777      C1785   1.267       .  A
O1778     Zr2488   2.402       .  S
O1778      C1784   1.286       .  A
O1779     Zr1780   2.379       .  S
O1779      C1783   1.284       .  A
Zr1780     O2483   2.504   1_545  S
Zr1780     O2486   2.402       .  S
Zr1780     O2489   2.349   1_545  S
Zr1780     O1782   2.339       .  S
Zr1780     O2498   2.328   1_545  S
Zr1780     O1788   2.313       .  S
O1781     Zr2488   2.349       .  S
O1781     Zr1807   2.331       .  S
O1781     Zr1810   2.339       .  S
C1783      C2096   1.448       .  S
C1784      C2009   1.492       .  S
C1785      C2066   1.509       .  S
C1786      C1999   1.492       .  S
H1787      O1788   0.964       .  S
O1788     Zr2515   2.319   1_545  S
O1790     Zr2488   2.328       .  S
O1790     Zr1810   2.337       .  S
O1791      C1814   1.299       .  A
O1792     Zr1808   2.547       .  S
O1793     Zr1809   2.506       .  S
O1793      C1816   1.302       .  A
O1794     Zr1810   2.521       .  S
O1794      C1817   1.305       .  A
O1795      C1818   1.298       .  A
O1796     Zr1809   2.459       .  S
O1797     Zr2519   2.529   1_545  S
O1798     Zr1811   2.541       .  S
O1798      C1821   1.311       .  A
O1799     Zr1809   2.384       .  S
O1799      C1820   1.284       .  A
O1801      C2524   1.276       .  A
O1802     Zr1808   2.381       .  S
O1802      C1819   1.283       .  A
O1803     Zr2516   2.366       .  S
O1803      C1818   1.260       .  A
O1804     Zr1807   2.343       .  S
O1804      C1817   1.266       .  A
O1805      C1814   1.269       .  A
O1806     Zr1811   2.406       .  S
O1806      C2523   1.285       .  A
Zr1807     O2496   2.320       .  S
Zr1807     O1825   2.333       .  S
Zr1808     O2511   2.366       .  S
Zr1808     O2520   2.328   1_545  S
Zr1809     O2521   2.306       .  S
Zr1810     O1825   2.342       .  S
Zr1811     O2505   2.529       .  S
Zr1811     O2531   2.331       .  S
O1812     Zr2516   2.328       .  S
O1813     Zr2517   2.306       .  S
C1814      C1989   1.456       .  S
C1815      O2514   1.285   1_545  A
C1815      C2036   1.508       .  S
C1816      O2509   1.276       .  A
C1816      C2026   1.462       .  S
C1817      C2076   1.485       .  S
C1818      C2016   1.488       .  S
C1819      C2046   1.456       .  S
C1820      C2086   1.505       .  S
C1821      C2059   1.509       .  S
H1822      O1823   0.966       .  S
O1823     Zr2519   2.331   1_545  S
C1826      C2674   1.592   1_545  S
C1826      C1976   1.567       .  S
C1826      C2029   1.570       .  S
C1826      C2039   1.608       .  S
O1827     Zr1863   2.502       .  S
O1827      C1838   1.304       .  A
O1828     Zr1862   2.542       .  S
O1828      C1839   1.311       .  A
O1829     Zr1835   2.492       .  S
O1829      C1840   1.302       .  A
O1830     Zr1835   2.523       .  S
O1830      C1841   1.308       .  A
O1831     Zr1865   2.312       .  S
O1831      C1841   1.269       .  A
O1832     Zr1864   2.374       .  S
O1832      C1840   1.283       .  A
O1833     Zr1835   2.411       .  S
O1833      C1839   1.286       .  A
O1834     Zr1835   2.388       .  S
O1834      C1838   1.283       .  A
Zr1835     O1836   2.320       .  S
Zr1835     O1837   2.328       .  S
Zr1835     O1845   2.339       .  S
Zr1835     O1843   2.357       .  S
O1836     Zr1862   2.358       .  S
O1836     Zr1865   2.348       .  S
O1837     Zr1863   2.335       .  S
O1837     Zr1864   2.346       .  S
C1838      C2119   1.476       .  S
C1839      C1896   1.522       .  S
C1840      C1956   1.480       .  S
C1841      C1979   1.460       .  S
H1842      O1843   0.965       .  S
O1843     Zr1862   2.339       .  S
O1843     Zr1864   2.332       .  S
H1844      O1845   0.965       .  S
O1845     Zr1863   2.319       .  S
O1845     Zr1865   2.333       .  S
O1846     Zr1862   2.532       .  S
O1846      C1869   1.310       .  A
O1847     Zr1863   2.472       .  S
O1847      C1870   1.298       .  A
O1848     Zr1864   2.508       .  S
O1848      C1871   1.306       .  A
O1849     Zr1865   2.499       .  S
O1849      C1872   1.302       .  A
O1850     Zr1865   2.502       .  S
O1850      C1873   1.303       .  A
O1851     Zr1864   2.485       .  S
O1851      C1874   1.301       .  A
O1852     Zr1866   2.482       .  S
O1852      C1875   1.294       .  A
O1853     Zr1866   2.462       .  S
O1853      C1876   1.294       .  A
O1854     Zr1864   2.377       .  S
O1854      C1875   1.266       .  A
O1855     Zr1865   2.378       .  S
O1855      C1876   1.283       .  A
O1856     Zr1862   2.434       .  S
O1856      C1871   1.289       .  A
O1857     Zr1863   2.395       .  S
O1857      C1874   1.282       .  A
O1858     Zr1863   2.438       .  S
O1858      C1873   1.291       .  A
O1859     Zr1862   2.351       .  S
O1859      C1872   1.278       .  A
O1860     Zr1866   2.358       .  S
O1860      C1869   1.277       .  A
O1861     Zr1866   2.445       .  S
O1861      C1870   1.293       .  A
Zr1862     O1868   2.331       .  S
Zr1862     O1880   2.358       .  S
Zr1863     O1867   2.345       .  S
Zr1863     O1878   2.355       .  S
Zr1864     O1868   2.322       .  S
Zr1864     O1878   2.366       .  S
Zr1865     O1867   2.321       .  S
Zr1865     O1880   2.323       .  S
Zr1866     O1867   2.338       .  S
Zr1866     O1868   2.356       .  S
Zr1866     O1880   2.349       .  S
Zr1866     O1878   2.312       .  S
C1869      C1946   1.492       .  S
C1870      C1909   1.485       .  S
C1871      C1969   1.502       .  S
C1872      C1916   1.457       .  S
C1873      C1939   1.519       .  S
C1874      C1886   1.467       .  S
C1875      C1929   1.463       .  S
C1876      C2106   1.466       .  S
H1877      O1878   0.963       .  S
H1879      O1880   0.964       .  S
C1881      C1889   1.558       .  S
C1881      C2069   1.600       .  S
C1881      C2079   1.569       .  S
C1882      C1959   1.584       .  S
C1882      C1986   1.550       .  S
C1882      C1996   1.590       .  S
C1883      C1906   1.593       .  S
C1883      C2049   1.558       .  S
C1883      C2056   1.581       .  S
C1884      C1926   1.583       .  S
C1884      C2644   1.621       .  S
C1884      C2006   1.569       .  S
C1884      C2019   1.578       .  S
C1885      C1886   1.406       .  A
C1885      C1890   1.395       .  A
C1885      H1892   1.072       .  S
C1886      C1887   1.385       .  A
C1887      C1888   1.392       .  A
C1887     Br1894   1.913       .  S
C1888      C1889   1.436       .  A
C1888      H1893   1.075       .  S
C1889      C1890   1.418       .  A
C1890     Br1891   1.930       .  S
C1895      C1896   1.408       .  A
C1895      C1900   1.429       .  A
C1895      H1902   1.083       .  S
C1896      C1897   1.416       .  A
C1897      C1898   1.395       .  A
C1897     Br1904   1.929       .  S
C1898      C1899   1.414       .  A
C1898      H1903   1.066       .  S
C1899      C1900   1.448       .  A
C1905      C1906   1.430       .  A
C1905      C1910   1.397       .  A
C1905      H1912   1.075       .  S
C1906      C1907   1.430       .  A
C1907      C1908   1.414       .  A
C1907     Br1914   1.919       .  S
C1908      C1909   1.405       .  A
C1908      H1913   1.083       .  S
C1909      C1910   1.396       .  A
C1910     Br1911   1.923       .  S
C1915      C1916   1.389       .  A
C1915      C1920   1.394       .  A
C1915      H1922   1.085       .  S
C1916      C1917   1.410       .  A
C1917      C1918   1.398       .  A
C1917     Br1924   1.910       .  S
C1918      C1919   1.408       .  A
C1918      H1923   1.079       .  S
C1919      C1920   1.442       .  A
C1920     Br1921   1.930       .  S
C1925      C1926   1.403       .  A
C1925      C1930   1.395       .  A
C1925      H1932   1.074       .  S
C1926      C1927   1.445       .  A
C1927      C1928   1.398       .  A
C1927     Br1934   1.936       .  S
C1928      C1929   1.391       .  A
C1928      H1933   1.085       .  S
C1929      C1930   1.405       .  A
C1930     Br1931   1.908       .  S
C1935      C1936   1.426       .  A
C1935      C1940   1.404       .  A
C1935      H1942   1.075       .  S
C1936      C2592   1.621   1_545  S
C1936      C1937   1.450       .  A
C1937      C1938   1.420       .  A
C1937     Br1944   1.934       .  S
C1938      C1939   1.405       .  A
C1938      H1943   1.083       .  S
C1939      C1940   1.414       .  A
C1940     Br1941   1.928       .  S
C1945      C1946   1.403       .  A
C1945      C1950   1.415       .  A
C1945      H1952   1.083       .  S
C1946      C1947   1.419       .  A
C1947      C1948   1.390       .  A
C1947     Br1954   1.932       .  S
C1948      C1949   1.410       .  A
C1948      H1953   1.078       .  S
C1949      C1950   1.442       .  A
C1950     Br1951   1.927   1_655  S
C1955      C1956   1.401       .  A
C1955      C1960   1.383       .  A
C1955      H1962   1.084       .  S
C1956      C1957   1.407       .  A
C1957      C1958   1.419       .  A
C1957     Br1964   1.903       .  S
C1958      C1959   1.426       .  A
C1958      H1963   1.078       .  S
C1959      C1960   1.418       .  A
C1960     Br1961   1.931       .  S
C1965      C1966   1.417       .  A
C1965      C1970   1.415       .  A
C1965      H1972   1.082       .  S
C1966      C2534   1.592       .  S
C1966      C1967   1.448       .  A
C1967      C1968   1.407       .  A
C1967     Br1974   1.933       .  S
C1968      C1969   1.393       .  A
C1968      H1973   1.085       .  S
C1969      C1970   1.415       .  A
C1970     Br1971   1.917       .  S
C1975      C1976   1.404       .  A
C1975      C1980   1.402       .  A
C1975      H1982   1.080       .  S
C1976      C1977   1.445       .  A
C1977      C1978   1.389       .  A
C1977     Br1984   1.933       .  S
C1978      C1979   1.384       .  A
C1978      H1983   1.080       .  S
C1979      C1980   1.417       .  A
C1980     Br1981   1.918       .  S
C1985      C1986   1.416       .  A
C1985      C1990   1.402       .  A
C1985      H1992   1.083       .  S
C1986      C1987   1.402       .  A
C1987      C1988   1.371       .  A
C1988      C1989   1.408       .  A
C1989      C1990   1.405       .  A
C1990     Br1991   1.903       .  S
C1995      C1996   1.429       .  A
C1995      C2000   1.402       .  A
C1996      C1997   1.429       .  A
C1997      C1998   1.415       .  A
C1997     Br2004   1.912       .  S
C1998      C1999   1.405       .  A
C1998      H2003   1.084       .  S
C1999      C2000   1.399       .  A
C2005      C2006   1.416       .  A
C2005      C2010   1.395       .  A
C2005      H2012   1.084       .  S
C2006      C2007   1.427       .  A
C2007      C2008   1.410       .  A
C2007     Br2014   1.902       .  S
C2008      C2009   1.400       .  A
C2008      H2013   1.082       .  S
C2009      C2010   1.411       .  A
C2010     Br2011   1.915       .  S
C2015      C2016   1.418       .  A
C2015      C2020   1.397       .  A
C2015      H2022   1.083       .  S
C2016      C2017   1.397       .  A
C2017      C2018   1.399       .  A
C2017     Br2024   1.921       .  S
C2018      C2019   1.425       .  A
C2018      H2023   1.066       .  S
C2019      C2020   1.416       .  A
C2020     Br2021   1.928       .  S
C2025      C2026   1.381       .  A
C2025      C2030   1.391       .  A
C2025      H2032   1.081       .  S
C2026      C2027   1.408       .  A
C2027      C2028   1.410       .  A
C2027     Br2388   1.917       .  S
C2028      C2029   1.408       .  A
C2028      H2741   1.074       .  S
C2029      C2030   1.454       .  A
C2030     Br2031   1.937   1_545  S
H2033      C2736   1.074       .  S
Br2034     C2381   1.917   1_556  S
C2035      C2744   1.412       .  A
C2035      C2748   1.429       .  A
C2036      C2743   1.412   1_545  A
C2036      C2037   1.403       .  A
C2037      C2038   1.405       .  A
C2037     Br2044   1.922       .  S
C2038      C2039   1.431       .  A
C2038      H2043   1.079       .  S
C2039      C2040   1.429   1_545  A
C2040      C2743   1.429       .  A
C2040     Br2749   1.912       .  S
Br2041     C2748   1.912       .  S
C2045      C2050   1.375       .  A
C2045      H2052   1.085       .  S
C2046      C2047   1.400       .  A
C2047      C2048   1.402       .  A
C2048      C2049   1.419       .  A
C2048      H2053   1.077       .  S
C2050     Br2051   1.933       .  S
C2055      C2060   1.410       .  A
C2055      H2062   1.077       .  S
C2056      C2057   1.421       .  A
C2057      C2058   1.393       .  A
C2057     Br2064   1.929       .  S
C2058      H2063   1.082       .  S
C2059      C2060   1.405       .  A
C2065      C2066   1.401       .  A
C2065      C2070   1.423       .  A
C2065      H2072   1.083       .  S
C2066      C2067   1.427       .  A
C2067      C2068   1.383       .  A
C2068      C2069   1.399       .  A
C2068      H2073   1.070       .  S
C2069      C2070   1.452       .  A
C2070     Br2071   1.924       .  S
C2075      C2076   1.396       .  A
C2075      C2080   1.411       .  A
C2075      H2082   1.083       .  S
C2076      C2077   1.421       .  A
C2077      C2078   1.375       .  A
C2077     Br2084   1.935   1_556  S
C2078      C2079   1.406       .  A
C2078      H2083   1.078       .  S
C2079      C2080   1.442       .  A
C2080     Br2081   1.917       .  S
C2085      C2086   1.408       .  A
C2085      C2090   1.397       .  A
C2085      H2092   1.084       .  S
C2086      C2087   1.408       .  A
C2088      H2093   1.079       .  S
C2089      C2090   1.424       .  A
C2090     Br2091   1.921       .  S
C2095      C2100   1.406       .  A
C2095      H2102   1.084       .  S
C2096      C2097   1.389       .  A
C2097      C2098   1.369       .  A
C2097     Br2104   1.926       .  S
C2098      C2099   1.423       .  A
C2098      H2103   1.073       .  S
C2100     Br2101   1.920       .  S
C2105      C2106   1.397       .  A
C2105      C2110   1.389       .  A
C2105      H2112   1.086       .  S
C2106      C2107   1.388       .  A
C2107      C2108   1.397       .  A
C2107     Br2114   1.917       .  S
C2108      C2109   1.436       .  A
C2108      H2113   1.079       .  S
C2109      C2110   1.438       .  A
C2110     Br2111   1.934       .  S
C2115      C2116   1.427       .  A
C2115      C2120   1.398       .  A
C2115      H2122   1.082       .  S
C2116      C2117   1.440       .  A
C2117      C2118   1.411       .  A
C2117     Br2124   1.926       .  S
C2118      C2119   1.398       .  A
C2118      H2123   1.085       .  S
C2119      C2120   1.399       .  A
C2120     Br2121   1.920       .  S
C2125      C2463   1.578   1_455  S
O2126     Zr2162   2.433       .  S
O2127     Zr2161   2.509       .  S
O2127      C2138   1.305       .  A
O2128     Zr2134   2.549       .  S
O2128      C2139   1.312       .  A
O2129      C2140   1.305       .  A
O2130     Zr2164   2.432       .  S
O2130      C2140   1.292       .  A
O2131     Zr2517   2.344       .  S
O2131      C2139   1.267       .  A
O2132      C2138   1.286   1_545  A
O2133     Zr2134   2.379       .  S
O2133      C2137   1.284       .  A
Zr2134     O2136   2.339       .  S
Zr2134     O2142   2.313       .  S
O2135     Zr2161   2.331       .  S
O2135     Zr2164   2.339       .  S
O2136     Zr2517   2.336       .  S
C2137      C2450   1.448       .  S
C2138      C2363   1.492       .  S
C2139      C2420   1.509       .  S
C2140      C2353   1.492       .  S
H2141      O2142   0.964       .  S
O2142     Zr2517   2.318       .  S
O2144     Zr2164   2.337       .  S
O2145     Zr2515   2.486   1_554  S
O2145      C2168   1.299       .  A
O2146     Zr2162   2.547       .  S
O2146      C2523   1.313       .  A
O2147     Zr2163   2.506       .  S
O2147      C2170   1.302       .  A
O2148     Zr2164   2.521       .  S
O2148      C2171   1.305       .  A
O2149      C2172   1.298       .  A
O2150     Zr2163   2.459       .  S
O2152     Zr2165   2.541       .  S
O2152      C2175   1.311   1_554  A
O2153     Zr2163   2.384       .  S
O2153      C2174   1.284       .  A
O2154      C2529   1.280       .  A
O2155     Zr2515   2.350   1_544  S
O2156     Zr2162   2.381       .  S
O2156      C2173   1.283       .  A
O2157      C2172   1.260   1_545  A
O2158     Zr2161   2.343       .  S
O2158      C2171   1.266       .  A
O2159      C2168   1.269       .  A
O2160     Zr2165   2.406       .  S
Zr2161     O2499   2.486       .  S
Zr2161     O2509   2.350   1_565  S
Zr2161     O2521   2.323   1_565  S
Zr2161     O2179   2.333       .  S
Zr2162     O2531   2.332       .  S
Zr2163     O2485   2.344   1_554  S
Zr2163     O2490   2.336   1_554  S
Zr2163     O2496   2.318   1_554  S
Zr2164     O2179   2.342       .  S
Zr2165     O2520   2.318   1_554  S
O2166     Zr2519   2.318       .  S
O2167     Zr2515   2.323   1_544  S
C2168      C2343   1.456       .  S
C2169      O2500   1.313   1_554  A
C2169      C2390   1.508       .  S
C2170      C2380   1.462       .  S
C2171      C2430   1.485       .  S
C2172      C2370   1.488       .  S
C2173      C2400   1.456       .  S
C2174      C2440   1.505       .  S
C2175      O2508   1.280       .  A
C2175      C2413   1.509       .  S
H2176      O2177   0.966       .  S
O2177     Zr2516   2.332   1_554  S
H2178      O2533   0.963   1_554  S
O2179      H2532   0.963       .  S
C2180      C2330   1.567       .  S
C2180      C2383   1.570       .  S
C2180      C2393   1.608       .  S
O2181     Zr2217   2.502       .  S
O2181      C2192   1.304       .  A
O2182     Zr2216   2.542       .  S
O2182      C2193   1.311       .  A
O2183     Zr2189   2.492       .  S
O2183      C2194   1.302       .  A
O2184     Zr2189   2.523       .  S
O2184      C2195   1.308       .  A
O2185     Zr2219   2.312       .  S
O2185      C2195   1.269       .  A
O2186     Zr2218   2.374       .  S
O2186      C2194   1.283       .  A
O2187     Zr2189   2.411       .  S
O2187      C2193   1.286       .  A
O2188     Zr2189   2.388       .  S
O2188      C2192   1.283       .  A
Zr2189     O2190   2.320       .  S
Zr2189     O2191   2.328       .  S
Zr2189     O2199   2.339       .  S
Zr2189     O2197   2.357       .  S
O2190     Zr2216   2.358       .  S
O2190     Zr2219   2.348       .  S
O2191     Zr2217   2.336       .  S
O2191     Zr2218   2.346       .  S
C2192      C2473   1.476       .  S
C2193      C2250   1.522       .  S
C2194      C2310   1.480       .  S
C2195      C2333   1.460       .  S
H2196      O2197   0.965       .  S
O2197     Zr2216   2.339       .  S
O2197     Zr2218   2.332       .  S
H2198      O2199   0.965       .  S
O2199     Zr2217   2.319       .  S
O2199     Zr2219   2.333       .  S
O2200     Zr2216   2.532       .  S
O2200      C2223   1.310       .  A
O2201     Zr2217   2.472       .  S
O2201      C2224   1.298       .  A
O2202     Zr2218   2.508       .  S
O2202      C2225   1.306       .  A
O2203     Zr2219   2.499       .  S
O2203      C2226   1.302       .  A
O2204     Zr2219   2.502       .  S
O2204      C2227   1.303       .  A
O2205     Zr2218   2.485       .  S
O2205      C2228   1.301       .  A
O2206     Zr2220   2.482       .  S
O2206      C2229   1.294       .  A
O2207     Zr2220   2.463       .  S
O2207      C2230   1.294       .  A
O2208     Zr2218   2.377       .  S
O2208      C2229   1.266       .  A
O2209     Zr2219   2.378       .  S
O2209      C2230   1.283       .  A
O2210     Zr2216   2.434       .  S
O2210      C2225   1.289       .  A
O2211     Zr2217   2.395       .  S
O2211      C2228   1.282       .  A
O2212     Zr2217   2.438       .  S
O2212      C2227   1.291       .  A
O2213     Zr2216   2.351       .  S
O2213      C2226   1.278       .  A
O2214     Zr2220   2.358       .  S
O2214      C2223   1.277       .  A
O2215     Zr2220   2.445       .  S
O2215      C2224   1.293       .  A
Zr2216     O2222   2.331       .  S
Zr2216     O2234   2.358       .  S
Zr2217     O2221   2.345       .  S
Zr2217     O2232   2.355       .  S
Zr2218     O2222   2.322       .  S
Zr2218     O2232   2.366       .  S
Zr2219     O2221   2.321       .  S
Zr2219     O2234   2.323       .  S
Zr2220     O2221   2.338       .  S
Zr2220     O2222   2.356       .  S
Zr2220     O2234   2.349       .  S
Zr2220     O2232   2.312       .  S
C2223      C2300   1.492       .  S
C2224      C2263   1.485       .  S
C2225      C2323   1.502       .  S
C2226      C2270   1.457       .  S
C2227      C2293   1.519       .  S
C2228      C2240   1.467       .  S
C2229      C2283   1.463       .  S
C2230      C2460   1.466       .  S
H2231      O2232   0.963       .  S
H2233      O2234   0.964       .  S
C2235      C2243   1.558       .  S
C2235      C2607   1.627       .  S
C2235      C2423   1.600       .  S
C2235      C2433   1.569       .  S
C2236      C2313   1.584       .  S
C2236      C2340   1.550       .  S
C2236      C2350   1.590       .  S
C2237      C2260   1.593       .  S
C2237      C2627   1.563       .  S
C2237      C2403   1.558       .  S
C2237      C2410   1.581       .  S
C2238      C2280   1.583       .  S
C2238      C2360   1.569       .  S
C2238      C2373   1.578       .  S
C2239      C2240   1.406       .  A
C2239      C2244   1.395       .  A
C2239      H2246   1.072       .  S
C2240      C2241   1.385       .  A
C2241      C2242   1.392       .  A
C2241     Br2248   1.913       .  S
C2242      C2243   1.436       .  A
C2242      H2247   1.075       .  S
C2243      C2244   1.418       .  A
C2244     Br2245   1.930       .  S
C2249      C2250   1.408       .  A
C2249      C2254   1.429       .  A
C2249      H2256   1.083       .  S
C2250      C2251   1.416       .  A
C2251      C2252   1.395       .  A
C2251     Br2258   1.929       .  S
C2252      C2253   1.414   1_554  A
C2252      H2257   1.066       .  S
C2253      C2589   1.627       .  S
C2253      C2254   1.448   1_556  A
C2254     Br2609   1.925   1_554  S
Br2255     C2608   1.925       .  S
C2259      C2260   1.430       .  A
C2259      C2264   1.397       .  A
C2259      H2266   1.075       .  S
C2260      C2261   1.430       .  A
C2261      C2262   1.414       .  A
C2261     Br2268   1.919       .  S
C2262      C2263   1.405       .  A
C2262      H2267   1.083       .  S
C2263      C2264   1.396       .  A
C2264     Br2265   1.923       .  S
C2269      C2270   1.389       .  A
C2269      C2274   1.394       .  A
C2269      H2276   1.085       .  S
C2270      C2271   1.410       .  A
C2271      C2272   1.398       .  A
C2271     Br2278   1.910       .  S
C2272      C2273   1.408       .  A
C2272      H2277   1.079       .  S
C2273      C2591   1.563   1_554  S
C2273      C2274   1.442       .  A
C2274     Br2275   1.930       .  S
C2279      C2280   1.403       .  A
C2279      C2284   1.395       .  A
C2279      H2286   1.074       .  S
C2280      C2281   1.445       .  A
C2281      C2282   1.398       .  A
C2281     Br2288   1.936       .  S
C2282      C2283   1.391       .  A
C2282      H2287   1.085       .  S
C2283      C2284   1.405       .  A
C2284     Br2285   1.908       .  S
C2289      C2290   1.426       .  A
C2289      C2294   1.404       .  A
C2289      H2296   1.075       .  S
C2290      C2291   1.450       .  A
C2291      C2292   1.420       .  A
C2291     Br2298   1.934       .  S
C2292      C2293   1.405       .  A
C2292      H2297   1.083       .  S
C2293      C2294   1.414       .  A
C2294     Br2295   1.928       .  S
C2299      C2300   1.403       .  A
C2299      C2304   1.415       .  A
C2299      H2306   1.083       .  S
C2300      C2301   1.419       .  A
C2301      C2302   1.390       .  A
C2301     Br2308   1.932       .  S
C2302      C2303   1.410       .  A
C2302      H2307   1.078       .  S
C2303      C2304   1.442       .  A
C2304     Br2305   1.927   1_655  S
C2309      C2310   1.401       .  A
C2309      C2314   1.383       .  A
C2309      H2316   1.084       .  S
C2310      C2311   1.407       .  A
C2311      C2312   1.419       .  A
C2311     Br2318   1.903       .  S
C2312      C2313   1.426       .  A
C2312      H2317   1.078       .  S
C2313      C2314   1.418       .  A
C2314     Br2315   1.931       .  S
C2319      C2320   1.417       .  A
C2319      C2324   1.415       .  A
C2319      H2326   1.082       .  S
C2320      C2321   1.448       .  A
C2321      C2322   1.407       .  A
C2321     Br2328   1.933       .  S
C2322      C2323   1.393       .  A
C2322      H2327   1.085       .  S
C2323      C2324   1.415       .  A
C2324     Br2325   1.917       .  S
C2329      C2330   1.404       .  A
C2329      C2334   1.402       .  A
C2329      H2336   1.080       .  S
C2330      C2331   1.445       .  A
C2331      C2332   1.389       .  A
C2331     Br2338   1.933       .  S
C2332      C2333   1.384       .  A
C2332      H2337   1.080       .  S
C2333      C2334   1.417       .  A
C2334     Br2335   1.918       .  S
C2339      C2340   1.416       .  A
C2339      C2344   1.402       .  A
C2339      H2346   1.083       .  S
C2340      C2341   1.402       .  A
C2341      C2342   1.371       .  A
C2342      C2343   1.408       .  A
C2343      C2344   1.405       .  A
C2344     Br2345   1.903       .  S
C2349      C2350   1.429       .  A
C2349      C2354   1.402       .  A
C2350      C2351   1.429       .  A
C2351      C2352   1.415       .  A
C2351     Br2358   1.912       .  S
C2352      C2353   1.405       .  A
C2352      H2357   1.084       .  S
C2353      C2354   1.399       .  A
C2359      C2360   1.416       .  A
C2359      C2364   1.395       .  A
C2359      H2366   1.084       .  S
C2360      C2361   1.427       .  A
C2361      C2362   1.410       .  A
C2361     Br2368   1.902   1_565  S
C2362      C2363   1.400       .  A
C2362      H2367   1.082       .  S
C2363      C2364   1.411       .  A
C2364     Br2365   1.915       .  S
C2369      C2370   1.418   1_545  A
C2369      C2374   1.397       .  A
C2369      H2376   1.083       .  S
C2370      C2371   1.397       .  A
C2371      C2372   1.399       .  A
C2371     Br2378   1.921       .  S
C2372      C2373   1.425       .  A
C2372      H2377   1.066       .  S
C2373      C2374   1.416   1_565  A
C2374     Br2375   1.928       .  S
C2379      C2380   1.381       .  A
C2379      C2384   1.391       .  A
C2379      H2386   1.081       .  S
C2380      C2381   1.408       .  A
C2381      C2382   1.410       .  A
C2382      C2383   1.408       .  A
C2383      C2384   1.454       .  A
C2384     Br2385   1.937       .  S
C2389      H2750   1.084   1_554  S
C2390      C2391   1.403       .  A
C2391      C2392   1.405       .  A
C2391     Br2398   1.922       .  S
C2392      C2393   1.431       .  A
C2392      H2397   1.079       .  S
C2393      C2394   1.429       .  A
H2396      C2743   1.084       .  S
C2399      C2754   1.389       .  A
C2399      C2404   1.375       .  A
C2399      H2406   1.085   1_556  S
C2400      C2753   1.389       .  A
C2400      C2401   1.400       .  A
C2401      C2402   1.402       .  A
C2402      C2403   1.419       .  A
C2402      H2407   1.077       .  S
C2403      C2758   1.434       .  A
C2404      C2757   1.434       .  A
C2404     Br2405   1.933       .  S
C2409      C2764   1.433   1_554  A
C2409      C2414   1.410       .  A
C2409      H2416   1.077       .  S
C2410      C2763   1.433       .  A
C2410      C2411   1.421       .  A
C2411      C2412   1.393       .  A
C2411     Br2418   1.929       .  S
C2412      C2767   1.416       .  A
C2412      H2417   1.082       .  S
C2413      C2766   1.416       .  A
C2413      C2414   1.405   1_556  A
C2419      C2420   1.401       .  A
C2419      C2424   1.423       .  A
C2419      H2426   1.083       .  S
C2420      C2421   1.427       .  A
C2421      C2422   1.383       .  A
C2421     Br2782   1.941       .  S
C2422      C2423   1.399       .  A
C2422      H2427   1.070       .  S
C2423      C2424   1.452       .  A
C2424     Br2425   1.924       .  S
Br2428     C2775   1.941   1_554  S
C2429      C2430   1.396       .  A
C2429      C2434   1.411       .  A
C2429      H2436   1.083       .  S
C2430      C2431   1.421       .  A
C2431      C2432   1.375       .  A
C2431     Br2438   1.935       .  S
C2432      C2433   1.406       .  A
C2432      H2437   1.078       .  S
C2433      C2434   1.442       .  A
C2434     Br2435   1.917       .  S
C2439      C2440   1.408       .  A
C2439      C2444   1.397       .  A
C2439      H2446   1.084       .  S
C2440      C2441   1.408       .  A
C2442      H2447   1.079       .  S
C2443      C2444   1.424       .  A
C2444     Br2445   1.921       .  S
C2449      C2454   1.406       .  A
C2449      H2456   1.084       .  S
C2450      C2451   1.389       .  A
C2451      C2452   1.369       .  A
C2451     Br2458   1.926       .  S
C2452      C2453   1.423       .  A
C2452      H2457   1.073       .  S
C2454     Br2455   1.920       .  S
C2459      C2460   1.397       .  A
C2459      C2464   1.389       .  A
C2459      H2466   1.086       .  S
C2460      C2461   1.388       .  A
C2461      C2462   1.397       .  A
C2461     Br2468   1.917       .  S
C2462      C2463   1.436       .  A
C2462      H2467   1.079       .  S
C2463      C2464   1.438       .  A
C2464     Br2465   1.934       .  S
C2469      C2470   1.427       .  A
C2469      C2474   1.398       .  A
C2469      H2476   1.082       .  S
C2470      C2471   1.440       .  A
C2471      C2472   1.411       .  A
C2471     Br2478   1.926       .  S
C2472      C2473   1.398       .  A
C2472      H2477   1.085       .  S
C2473      C2474   1.399       .  A
C2474     Br2475   1.920       .  S
C2479      C2817   1.578   1_455  S
O2480     Zr2516   2.433       .  S
O2481     Zr2515   2.509       .  S
O2481      C2492   1.305       .  A
O2482     Zr2488   2.549       .  S
O2482      C2493   1.312       .  A
O2483      C2494   1.305       .  A
O2484     Zr2518   2.432       .  S
O2484      C2494   1.292       .  A
O2485      C2493   1.267       .  A
O2486      C2492   1.286   1_545  A
O2487     Zr2488   2.379       .  S
O2487      C2491   1.284       .  A
Zr2488     O2490   2.339       .  S
Zr2488     O2496   2.313       .  S
O2489     Zr2515   2.331       .  S
O2489     Zr2518   2.339       .  S
C2491      C2804   1.448       .  S
C2492      C2717   1.492       .  S
C2493      C2774   1.509       .  S
C2494      C2707   1.492       .  S
H2495      O2496   0.964       .  S
O2498     Zr2518   2.337       .  S
O2499      C2522   1.299       .  A
O2500     Zr2516   2.547       .  S
O2501     Zr2517   2.506       .  S
O2501      C2524   1.302       .  A
O2502     Zr2518   2.521       .  S
O2502      C2525   1.305       .  A
O2503      C2526   1.298       .  A
O2504     Zr2517   2.459       .  S
O2506     Zr2519   2.541       .  S
O2506      C2529   1.311       .  A
O2507     Zr2517   2.384       .  S
O2507      C2528   1.284       .  A
O2510     Zr2516   2.381       .  S
O2510      C2527   1.283       .  A
O2511      C2526   1.260   1_545  A
O2512     Zr2515   2.343       .  S
O2512      C2525   1.266       .  A
O2513      C2522   1.269       .  A
O2514     Zr2519   2.406       .  S
Zr2515     O2533   2.333       .  S
Zr2518     O2533   2.342       .  S
C2522      C2697   1.456       .  S
C2523      C2744   1.508       .  S
C2524      C2734   1.462       .  S
C2525      C2784   1.485       .  S
C2526      C2724   1.488       .  S
C2527      C2754   1.456       .  S
C2528      C2794   1.505       .  S
C2529      C2767   1.509       .  S
H2530      O2531   0.966       .  S
C2534      C2684   1.567       .  S
C2534      C2737   1.570       .  S
C2534      C2747   1.608       .  S
O2535     Zr2571   2.502       .  S
O2535      C2546   1.304       .  A
O2536     Zr2570   2.542       .  S
O2536      C2547   1.311       .  A
O2537     Zr2543   2.492       .  S
O2537      C2548   1.302       .  A
O2538     Zr2543   2.523       .  S
O2538      C2549   1.308       .  A
O2539     Zr2573   2.312       .  S
O2539      C2549   1.269       .  A
O2540     Zr2572   2.374       .  S
O2540      C2548   1.283       .  A
O2541     Zr2543   2.411       .  S
O2541      C2547   1.286       .  A
O2542     Zr2543   2.388       .  S
O2542      C2546   1.283       .  A
Zr2543     O2544   2.320       .  S
Zr2543     O2545   2.328       .  S
Zr2543     O2553   2.339       .  S
Zr2543     O2551   2.357       .  S
O2544     Zr2570   2.358       .  S
O2544     Zr2573   2.348       .  S
O2545     Zr2571   2.336       .  S
O2545     Zr2572   2.346       .  S
C2546      C2827   1.476       .  S
C2547      C2604   1.522       .  S
C2548      C2664   1.480       .  S
C2549      C2687   1.460       .  S
H2550      O2551   0.965       .  S
O2551     Zr2570   2.339       .  S
O2551     Zr2572   2.332       .  S
H2552      O2553   0.965       .  S
O2553     Zr2571   2.319       .  S
O2553     Zr2573   2.333       .  S
O2554     Zr2570   2.532       .  S
O2554      C2577   1.310       .  A
O2555     Zr2571   2.472       .  S
O2555      C2578   1.298       .  A
O2556     Zr2572   2.508       .  S
O2556      C2579   1.306       .  A
O2557     Zr2573   2.499       .  S
O2557      C2580   1.302       .  A
O2558     Zr2573   2.502       .  S
O2558      C2581   1.303       .  A
O2559     Zr2572   2.485       .  S
O2559      C2582   1.301       .  A
O2560     Zr2574   2.482       .  S
O2560      C2583   1.294       .  A
O2561     Zr2574   2.463       .  S
O2561      C2584   1.294       .  A
O2562     Zr2572   2.377       .  S
O2562      C2583   1.266       .  A
O2563     Zr2573   2.378       .  S
O2563      C2584   1.283       .  A
O2564     Zr2570   2.434       .  S
O2564      C2579   1.289       .  A
O2565     Zr2571   2.395       .  S
O2565      C2582   1.282       .  A
O2566     Zr2571   2.438       .  S
O2566      C2581   1.291       .  A
O2567     Zr2570   2.351       .  S
O2567      C2580   1.278       .  A
O2568     Zr2574   2.358       .  S
O2568      C2577   1.277       .  A
O2569     Zr2574   2.445       .  S
O2569      C2578   1.293       .  A
Zr2570     O2576   2.331       .  S
Zr2570     O2588   2.358       .  S
Zr2571     O2575   2.345       .  S
Zr2571     O2586   2.355       .  S
Zr2572     O2576   2.322       .  S
Zr2572     O2586   2.366       .  S
Zr2573     O2575   2.321       .  S
Zr2573     O2588   2.323       .  S
Zr2574     O2575   2.338       .  S
Zr2574     O2576   2.356       .  S
Zr2574     O2588   2.349       .  S
Zr2574     O2586   2.312       .  S
C2577      C2654   1.492       .  S
C2578      C2617   1.485       .  S
C2579      C2677   1.502       .  S
C2580      C2624   1.457       .  S
C2581      C2647   1.519       .  S
C2582      C2594   1.467       .  S
C2583      C2637   1.463       .  S
C2584      C2814   1.466       .  S
H2585      O2586   0.963       .  S
H2587      O2588   0.964       .  S
C2589      C2597   1.558       .  S
C2589      C2777   1.600       .  S
C2589      C2787   1.569       .  S
C2590      C2667   1.584       .  S
C2590      C2694   1.550       .  S
C2590      C2704   1.590       .  S
C2591      C2614   1.593       .  S
C2591      C2757   1.558       .  S
C2591      C2764   1.581       .  S
C2592      C2634   1.583       .  S
C2592      C2714   1.569       .  S
C2592      C2727   1.578       .  S
C2593      C2594   1.406       .  A
C2593      C2598   1.395       .  A
C2593      H2600   1.072       .  S
C2594      C2595   1.385       .  A
C2595      C2596   1.392       .  A
C2595     Br2602   1.913       .  S
C2596      C2597   1.436       .  A
C2596      H2601   1.075       .  S
C2597      C2598   1.418       .  A
C2598     Br2599   1.930       .  S
C2603      C2604   1.408       .  A
C2603      C2608   1.429       .  A
C2603      H2610   1.083       .  S
C2604      C2605   1.416       .  A
C2605      C2606   1.395       .  A
C2605     Br2612   1.929       .  S
C2606      C2607   1.414       .  A
C2606      H2611   1.066       .  S
C2607      C2608   1.448       .  A
C2613      C2614   1.430       .  A
C2613      C2618   1.397       .  A
C2613      H2620   1.075       .  S
C2614      C2615   1.430       .  A
C2615      C2616   1.414       .  A
C2615     Br2622   1.919       .  S
C2616      C2617   1.405       .  A
C2616      H2621   1.083       .  S
C2617      C2618   1.396       .  A
C2618     Br2619   1.923       .  S
C2623      C2624   1.389       .  A
C2623      C2628   1.394       .  A
C2623      H2630   1.085       .  S
C2624      C2625   1.410       .  A
C2625      C2626   1.398       .  A
C2625     Br2632   1.910       .  S
C2626      C2627   1.408       .  A
C2626      H2631   1.079       .  S
C2627      C2628   1.442       .  A
C2628     Br2629   1.930       .  S
C2633      C2634   1.403       .  A
C2633      C2638   1.395       .  A
C2633      H2640   1.074       .  S
C2634      C2635   1.445       .  A
C2635      C2636   1.398       .  A
C2635     Br2642   1.936       .  S
C2636      C2637   1.391       .  A
C2636      H2641   1.085       .  S
C2637      C2638   1.405       .  A
C2638     Br2639   1.908       .  S
C2643      C2644   1.426       .  A
C2643      C2648   1.404       .  A
C2643      H2650   1.075       .  S
C2644      C2645   1.450       .  A
C2645      C2646   1.420       .  A
C2645     Br2652   1.934       .  S
C2646      C2647   1.405       .  A
C2646      H2651   1.083       .  S
C2647      C2648   1.414       .  A
C2648     Br2649   1.928       .  S
C2653      C2654   1.403       .  A
C2653      C2658   1.415       .  A
C2653      H2660   1.083       .  S
C2654      C2655   1.419       .  A
C2655      C2656   1.390       .  A
C2655     Br2662   1.932       .  S
C2656      C2657   1.410       .  A
C2656      H2661   1.078       .  S
C2657      C2658   1.442       .  A
C2658     Br2659   1.927   1_655  S
C2663      C2664   1.401       .  A
C2663      C2668   1.383       .  A
C2663      H2670   1.084       .  S
C2664      C2665   1.407       .  A
C2665      C2666   1.419       .  A
C2665     Br2672   1.903       .  S
C2666      C2667   1.426       .  A
C2666      H2671   1.078       .  S
C2667      C2668   1.418       .  A
C2668     Br2669   1.931       .  S
C2673      C2674   1.417       .  A
C2673      C2678   1.415       .  A
C2673      H2680   1.082       .  S
C2674      C2675   1.448       .  A
C2675      C2676   1.407       .  A
C2675     Br2682   1.933       .  S
C2676      C2677   1.393       .  A
C2676      H2681   1.085       .  S
C2677      C2678   1.415       .  A
C2678     Br2679   1.917       .  S
C2683      C2684   1.404       .  A
C2683      C2688   1.402       .  A
C2683      H2690   1.080       .  S
C2684      C2685   1.445       .  A
C2685      C2686   1.389       .  A
C2685     Br2692   1.933       .  S
C2686      C2687   1.384       .  A
C2686      H2691   1.080       .  S
C2687      C2688   1.417       .  A
C2688     Br2689   1.918       .  S
C2693      C2694   1.416       .  A
C2693      C2698   1.402       .  A
C2693      H2700   1.083       .  S
C2694      C2695   1.402       .  A
C2695      C2696   1.371       .  A
C2696      C2697   1.408       .  A
C2697      C2698   1.405       .  A
C2698     Br2699   1.903       .  S
C2703      C2704   1.429       .  A
C2703      C2708   1.402       .  A
C2704      C2705   1.429       .  A
C2705      C2706   1.415       .  A
C2705     Br2712   1.912       .  S
C2706      C2707   1.405       .  A
C2706      H2711   1.084       .  S
C2707      C2708   1.399       .  A
C2713      C2714   1.416       .  A
C2713      C2718   1.395       .  A
C2713      H2720   1.084       .  S
C2714      C2715   1.427       .  A
C2715      C2716   1.410       .  A
C2715     Br2722   1.902   1_565  S
C2716      C2717   1.400       .  A
C2716      H2721   1.082       .  S
C2717      C2718   1.411       .  A
C2718     Br2719   1.915       .  S
C2723      C2724   1.418   1_545  A
C2723      C2728   1.397       .  A
C2723      H2730   1.083       .  S
C2724      C2725   1.397       .  A
C2725      C2726   1.399       .  A
C2725     Br2732   1.921       .  S
C2726      C2727   1.425       .  A
C2726      H2731   1.066       .  S
C2727      C2728   1.416   1_565  A
C2728     Br2729   1.928       .  S
C2733      C2734   1.381       .  A
C2733      C2738   1.391       .  A
C2733      H2740   1.081       .  S
C2734      C2735   1.408       .  A
C2735      C2736   1.410       .  A
C2736      C2737   1.408       .  A
C2737      C2738   1.454       .  A
C2738     Br2739   1.937       .  S
C2744      C2745   1.403       .  A
C2745      C2746   1.405       .  A
C2745     Br2752   1.922       .  S
C2746      C2747   1.431       .  A
C2746      H2751   1.079       .  S
C2747      C2748   1.429       .  A
C2753      C2758   1.375       .  A
C2753      H2760   1.085       .  S
C2754      C2755   1.400       .  A
C2755      C2756   1.402       .  A
C2756      C2757   1.419       .  A
C2756      H2761   1.077       .  S
C2758     Br2759   1.933       .  S
C2763      C2768   1.410       .  A
C2763      H2770   1.077       .  S
C2764      C2765   1.421       .  A
C2765      C2766   1.393       .  A
C2765     Br2772   1.929       .  S
C2766      H2771   1.082       .  S
C2767      C2768   1.405       .  A
C2773      C2774   1.401       .  A
C2773      C2778   1.423       .  A
C2773      H2780   1.083       .  S
C2774      C2775   1.427       .  A
C2775      C2776   1.383       .  A
C2776      C2777   1.399       .  A
C2776      H2781   1.070       .  S
C2777      C2778   1.452       .  A
C2778     Br2779   1.924       .  S
C2783      C2784   1.396       .  A
C2783      C2788   1.411       .  A
C2783      H2790   1.083       .  S
C2784      C2785   1.421       .  A
C2785      C2786   1.375       .  A
C2785     Br2792   1.935   1_556  S
C2786      C2787   1.406       .  A
C2786      H2791   1.078       .  S
C2787      C2788   1.442       .  A
C2788     Br2789   1.917       .  S
C2793      C2794   1.408       .  A
C2793      C2798   1.397       .  A
C2793      H2800   1.084       .  S
C2794      C2795   1.408       .  A
C2796      H2801   1.079       .  S
C2797      C2798   1.424       .  A
C2798     Br2799   1.921       .  S
C2803      C2808   1.406       .  A
C2803      H2810   1.084       .  S
C2804      C2805   1.389       .  A
C2805      C2806   1.369       .  A
C2805     Br2812   1.926       .  S
C2806      C2807   1.423       .  A
C2806      H2811   1.073       .  S
C2808     Br2809   1.920       .  S
C2813      C2814   1.397       .  A
C2813      C2818   1.389       .  A
C2813      H2820   1.086       .  S
C2814      C2815   1.388       .  A
C2815      C2816   1.397       .  A
C2815     Br2822   1.917       .  S
C2816      C2817   1.436       .  A
C2816      H2821   1.079       .  S
C2817      C2818   1.438       .  A
C2818     Br2819   1.934       .  S
C2823      C2824   1.427       .  A
C2823      C2828   1.398       .  A
C2823      H2830   1.082       .  S
C2824      C2825   1.440       .  A
C2825      C2826   1.411       .  A
C2825     Br2832   1.926       .  S
C2826      C2827   1.398       .  A
C2826      H2831   1.085       .  S
C2827      C2828   1.399       .  A
C2828     Br2829   1.920       .  S
