geometry optimzed in LAMMPS
_audit_creation_date              2020-11-30 
_audit_creation_method            'lammps2cif' 
_symmetry_space_group_name_H-M    'P1' 
_symmetry_Int_Tables_number       1 
_symmetry_cell_setting            triclinic 
loop_ 
_symmetry_equiv_pos_as_xyz 
  x,y,z 
_cell_length_a                    24.48652852 
_cell_length_b                    24.516744320622237 
_cell_length_c                    24.416704637687257 
_cell_angle_alpha                 90.25107759876246 
_cell_angle_beta                  90.01867296698009 
_cell_angle_gamma                 89.53684768362818 
loop_ 
_atom_site_label 
_atom_site_type_symbol 
_atom_site_fract_x 
_atom_site_fract_y 
_atom_site_fract_z 
_atom_site_charge 
N1          N  0.49955482  0.00911672  0.42584150    -0.33800
N2          N  0.49999096  0.09626918  0.51088388    -0.54300
N3          N  0.49945927  0.01210424  0.59685324    -0.33700
N4          N  0.50405521  0.92530910  0.51148676    -0.54300
C5          C  0.50723100  0.05367396  0.39382551     0.29800
C6          C  0.50797533  0.96383910  0.39428536     0.29800
C7          C  0.50135775  0.05756264  0.62912328     0.29800
C8          C  0.50394527  0.96734679  0.62945347     0.29800
C9          C  0.49704702  0.12806365  0.46538571     0.38500
C10         C  0.49509833  0.12966513  0.55537886     0.38500
C11         C  0.49992775  0.89200701  0.46696616     0.38500
C12         C  0.49954949  0.89343276  0.55663916     0.38500
C13         C  0.51963869  0.03615245  0.34102797    -0.19000
C14         C  0.52005010  0.97996389  0.34134823    -0.19000
C15         C  0.50700709  0.04115103  0.68321135    -0.19000
C16         C  0.50868037  0.98473849  0.68339772    -0.19000
C17         C  0.49075815  0.18212705  0.48121736    -0.20100
C18         C  0.48953302  0.18315379  0.53771753    -0.20100
C19         C  0.49345625  0.83862837  0.48402058    -0.20100
C20         C  0.49325921  0.83947010  0.54033094    -0.20100
C21         C  0.50221695  0.10976794  0.40981335    -0.15400
C22         C  0.50390864  0.90828704  0.41108181    -0.15400
C23         C  0.50177540  0.91128214  0.61250214    -0.15400
C24         C  0.49682353  0.11335021  0.61174596    -0.15400
H25         H  0.52782936  0.06120224  0.30563273     0.17500
H26         H  0.52859976  0.95394257  0.30641399     0.17500
H27         H  0.50938952  0.06710082  0.71909211     0.17500
H28         H  0.51246184  0.95940386  0.71941203     0.17500
H29         H  0.48773365  0.21735478  0.45479730     0.15800
H30         H  0.48527567  0.21937255  0.56290604     0.15800
H31         H  0.48937857  0.80263777  0.45856193     0.15800
H32         H  0.48877330  0.80408573  0.56623347     0.15800
H33         H  0.48483081  0.00966757  0.46554537     0.22400
H34         H  0.49234285  0.01143783  0.55523974     0.29000
N35         N  0.00907610  0.57222685  0.50219821    -0.33800
N36         N  0.09483757  0.48688322  0.50345447    -0.54300
N37         N  0.01009478  0.40274086  0.49381738    -0.33700
N38         N  0.92446813  0.48850157  0.49853270    -0.54300
C39         C  0.05346476  0.60265711  0.51483405     0.29800
C40         C  0.96393129  0.60358308  0.51130740     0.29800
C41         C  0.05503214  0.37041574  0.50117280     0.29800
C42         C  0.96483221  0.37120604  0.49889124     0.29800
C43         C  0.12667697  0.53188818  0.49893030     0.38500
C44         C  0.12749204  0.44252733  0.49465481     0.38500
C45         C  0.89202690  0.53350992  0.49370020     0.38500
C46         C  0.89221191  0.44439780  0.49035511     0.38500
C47         C  0.03606931  0.65403354  0.53202694    -0.19000
C48         C  0.97987845  0.65461781  0.52969248    -0.19000
C49         C  0.03783481  0.31739808  0.51018137    -0.19000
C50         C  0.98136903  0.31790436  0.50877714    -0.19000
C51         C  0.17988753  0.51593480  0.48747791    -0.20100
C52         C  0.18043847  0.45970178  0.48486910    -0.20100
C53         C  0.83877614  0.51781861  0.48329421    -0.20100
C54         C  0.83883294  0.46176678  0.48127069    -0.20100
C55         C  0.10923402  0.58693617  0.50791342    -0.15400
C56         C  0.90886781  0.58851221  0.50123595    -0.15400
C57         C  0.90913201  0.38857437  0.49307002    -0.15400
C58         C  0.11107553  0.38672531  0.49776030    -0.15400
H59         H  0.06123556  0.68799034  0.54448943     0.17500
H60         H  0.95374347  0.68892432  0.54016642     0.17500
H61         H  0.06332977  0.28179368  0.51692577     0.17500
H62         H  0.95543384  0.28282142  0.51432073     0.17500
H63         H  0.21483431  0.54209046  0.48194703     0.15800
H64         H  0.21593177  0.43434133  0.47677704     0.15800
H65         H  0.80335114  0.54399539  0.47815803     0.15800
H66         H  0.80333152  0.43673125  0.47404080     0.15800
H67         H  0.00983216  0.53454445  0.48275233     0.29000
H68         H  0.01034349  0.44307416  0.48144398     0.29000
N69         N  0.48538508  0.50890793  0.91979123    -0.33800
N70         N  0.40037019  0.50905547  0.00578231    -0.54300
N71         N  0.48562620  0.51705307  0.09051958    -0.33700
N72         N  0.57039691  0.51205564  0.00436685    -0.54300
C73         C  0.44032822  0.50387767  0.88781979     0.29800
C74         C  0.53021078  0.50462340  0.88714604     0.29800
C75         C  0.44112402  0.50962124  0.12276822     0.29800
C76         C  0.53080494  0.51025582  0.12217488     0.29800
C77         C  0.36751370  0.51119341  0.96104369     0.38500
C78         C  0.36771258  0.51357330  0.05052460     0.38500
C79         C  0.60306485  0.51426108  0.95949064     0.38500
C80         C  0.60309685  0.51673800  0.04896664     0.38500
C81         C  0.45687250  0.49667350  0.83385922    -0.19000
C82         C  0.51322587  0.49711013  0.83346157    -0.19000
C83         C  0.45844598  0.50010652  0.17608385    -0.19000
C84         C  0.51468569  0.50048358  0.17567896    -0.19000
C85         C  0.31353490  0.51661122  0.97775776    -0.20100
C86         C  0.31368279  0.51804723  0.03409349    -0.20100
C87         C  0.65690292  0.52054358  0.97593719    -0.20100
C88         C  0.65693049  0.52208392  0.03219271    -0.20100
C89         C  0.38472732  0.50715840  0.90528854    -0.15400
C90         C  0.58593358  0.50858508  0.90387900    -0.15400
C91         C  0.58622777  0.51255854  0.10462584    -0.15400
C92         C  0.38529590  0.51130315  0.10605088    -0.15400
H93         H  0.43104123  0.49188805  0.79821181     0.17500
H94         H  0.53875254  0.49277662  0.79750292     0.17500
H95         H  0.43325588  0.49285217  0.21169202     0.17500
H96         H  0.54073789  0.49366407  0.21085012     0.17500
H97         H  0.27758675  0.51914637  0.95206529     0.15800
H98         H  0.27797378  0.52180891  0.05999851     0.15800
H99         H  0.69273085  0.52314788  0.95016771     0.15800
H100        H  0.69279939  0.52598273  0.05778707     0.15800
H101        H  0.48529403  0.51767654  0.96106859     0.29000
H102        H  0.48516540  0.52961517  0.05016708     0.29000
N103        N  0.99583493  0.49052442  0.07286331    -0.33800
N104        N  0.99974076  0.40936453  0.98480068    -0.54300
N105        N  0.99303189  0.49830579  0.90337156    -0.33700
N106        N  0.99518114  0.57885373  0.99176589    -0.54300
C107        C  0.00791570  0.44501883  0.10201660     0.29800
C108        C  0.00543262  0.53416806  0.10574066     0.29800
C109        C  0.99980157  0.45476274  0.86944953     0.29800
C110        C  0.99907031  0.54450811  0.87329350     0.29800
C111        C  0.99680652  0.37484939  0.02805927     0.38500
C112        C  0.99445800  0.37870435  0.93874831     0.38500
C113        C  0.98871469  0.60893164  0.03803435     0.38500
C114        C  0.98830232  0.61334674  0.94901454     0.38500
C115        C  0.02479436  0.46016074  0.15419833    -0.19000
C116        C  0.02323515  0.51619440  0.15649308    -0.19000
C117        C  0.00940641  0.47373095  0.81677819    -0.19000
C118        C  0.00906031  0.53001465  0.81925690    -0.19000
C119        C  0.99080622  0.32182275  0.00934150    -0.20100
C120        C  0.98938691  0.32421351  0.95300123    -0.20100
C121        C  0.97798664  0.66286774  0.02454643    -0.20100
C122        C  0.97784606  0.66568261  0.96843957    -0.20100
C123        C  0.00200927  0.39014821  0.08405369    -0.15400
C124        C  0.99652455  0.58969613  0.09222620    -0.15400
C125        C  0.99397896  0.59931222  0.89274881    -0.15400
C126        C  0.99585448  0.39847323  0.88394713    -0.15400
H127        H  0.03714191  0.43363844  0.18736375     0.17500
H128        H  0.03397734  0.54089911  0.19167014     0.17500
H129        H  0.01607946  0.44956123  0.78015010     0.17500
H130        H  0.01519197  0.55715905  0.78500111     0.17500
H131        H  0.98816428  0.28516528  0.03370952     0.15800
H132        H  0.98528068  0.28963301  0.92564167     0.15800
H133        H  0.97171339  0.69696055  0.05221103     0.15800
H134        H  0.97110349  0.70233332  0.94475477     0.15800
H135        H  0.97662189  0.49162810  0.03501299     0.29000
H136        H  0.98051284  0.49633260  0.94376357     0.29000
N137        N  0.48427309  0.93498824  0.00893869    -0.33800
N138        N  0.40045842  0.02042749  0.00936437    -0.54300
N139        N  0.48593617  0.10256616  0.99600384    -0.33700
N140        N  0.56932353  0.01625260  0.00042607    -0.54300
C141        C  0.44018565  0.90618526  0.02480400     0.29800
C142        C  0.52899517  0.90373490  0.01901915     0.29800
C143        C  0.44183201  0.13524351  0.00541530     0.29800
C144        C  0.53162304  0.13300630  0.00287293     0.29800
C145        C  0.36778777  0.97602893  0.00658031     0.38500
C146        C  0.36846410  0.06459080  0.99914092     0.38500
C147        C  0.60015319  0.97064285  0.99305822     0.38500
C148        C  0.60155052  0.05914397  0.98833133     0.38500
C149        C  0.45729343  0.85612046  0.04542303    -0.19000
C150        C  0.51327050  0.85459027  0.04166588    -0.19000
C151        C  0.45979330  0.18736604  0.01798978    -0.19000
C152        C  0.51627106  0.18590938  0.01656320    -0.19000
C153        C  0.31459272  0.99207106  0.99557899    -0.20100
C154        C  0.31494942  0.04801251  0.99092196    -0.20100
C155        C  0.65235089  0.98461556  0.97668211    -0.20100
C156        C  0.65330198  0.04048798  0.97376116    -0.20100
C157        C  0.38494999  0.92156147  0.01645144    -0.15400
C158        C  0.58315133  0.91689732  0.00484192    -0.15400
C159        C  0.58642155  0.11491258  0.99407578    -0.15400
C160        C  0.38599870  0.11980631  0.00029851    -0.15400
H161        H  0.43206574  0.82355481  0.06082428     0.17500
H162        H  0.53936176  0.82081089  0.05356320     0.17500
H163        H  0.43479367  0.22285005  0.02715803     0.17500
H164        H  0.54296867  0.22007421  0.02424123     0.17500
H165        H  0.27915847  0.96622141  0.99177180     0.15800
H166        H  0.27964248  0.07354383  0.98275434     0.15800
H167        H  0.68650273  0.95747663  0.96851294     0.15800
H168        H  0.68843642  0.06451286  0.96262701     0.15800
H169        H  0.48337315  0.97051499  0.98595473     0.29000
H170        H  0.48467790  0.06327254  0.98011443     0.29000
O171        O  0.77295459  0.63947575  0.82253084    -0.75600
C172        C  0.89937286  0.75800740  0.77880898     0.85400
O173        O  0.69835350  0.81815232  0.86832241    -0.76800
O174        O  0.78635764  0.87338430  0.69425805    -0.78200
O175        O  0.74012624  0.68458256  0.63411938    -0.78000
O176        O  0.71763132  0.61586525  0.75438355    -0.76700
Zn177      Zn  0.78828068  0.71941288  0.81459797     1.55700
O178        O  0.79699735  0.75465103  0.62333034    -0.78100
Cd179      Cd  0.71288821  0.69128867  0.71422255     1.59700
Cd180      Cd  0.69282718  0.80664805  0.78167434     1.59600
O181        O  0.63247945  0.71229001  0.70600191    -0.78000
O182        O  0.74949501  0.75211177  0.75370711    -1.88600
Cd183      Cd  0.80242781  0.78861955  0.70241110     1.59900
O184        O  0.61316382  0.78856186  0.75240655    -0.78000
O185        O  0.87926750  0.78085117  0.73632118    -0.76700
C186        C  0.73406389  0.79605294  0.89963252     0.85900
C187        C  0.74565935  0.60365168  0.79664917     0.85500
O188        O  0.87060182  0.72947413  0.81101271    -0.75600
C189        C  0.76895235  0.71530224  0.60385294     0.86300
O190        O  0.76654047  0.75921946  0.88198740    -0.75700
C191        C  0.59864939  0.74891587  0.72157204     0.86500
C192        C  0.74683808  0.90134471  0.71423290     0.86800
O193        O  0.71175724  0.88028375  0.74634366    -0.78100
O194        O  0.12128863  0.78692103  0.76057436    -0.75600
C195        C  0.24506882  0.90600844  0.76610802     0.85400
O196        O  0.24077927  0.70954282  0.63116495    -0.76800
O197        O  0.38312525  0.79045638  0.74853863    -0.78200
O198        O  0.25335218  0.73512063  0.90022201    -0.78000
O199        O  0.12807556  0.73584117  0.83524326    -0.76700
Zn200      Zn  0.19433664  0.80073632  0.72866985     1.55700
O201        O  0.32678270  0.78301521  0.87622134    -0.78100
Cd202      Cd  0.21214908  0.71876707  0.82813613     1.59700
Cd203      Cd  0.27748846  0.70288394  0.70931576     1.59600
O204        O  0.21876658  0.63612801  0.81697679    -0.78000
O205        O  0.24838701  0.75609085  0.76459975    -1.88600
Cd206      Cd  0.31033134  0.80099037  0.79341082     1.59900
O207        O  0.26663548  0.62489402  0.73946559    -0.78000
O208        O  0.28462821  0.88030829  0.78851589    -0.76700
C209        C  0.20957540  0.74826789  0.61533164     0.85900
C210        C  0.09967798  0.76380791  0.80167605     0.85500
O211        O  0.20802635  0.88175254  0.73900326    -0.75600
C212        C  0.29882412  0.75739969  0.91187835     0.86300
O213        O  0.19131948  0.78385331  0.64889207    -0.75700
C214        C  0.24129019  0.60601160  0.78084625     0.86500
C215        C  0.39535520  0.75218587  0.71504855     0.86800
O216        O  0.35997725  0.71755762  0.69894983    -0.78100
O217        O  0.71777778  0.12715588  0.73793253    -0.75600
C218        C  0.75288592  0.20589039  0.88713848     0.85400
O219        O  0.62344453  0.29357900  0.71381722    -0.76800
O220        O  0.77042990  0.36463546  0.81636996    -0.78200
O221        O  0.87206990  0.24469039  0.69519761    -0.78000
O222        O  0.78681868  0.13155535  0.67897719    -0.76700
Zn223      Zn  0.70136746  0.19815756  0.77409477     1.55700
O224        O  0.87531763  0.29233098  0.77331262    -0.78100
Cd225      Cd  0.79418193  0.21826776  0.68177817     1.59700
Cd226      Cd  0.70418553  0.31437435  0.70834523     1.59600
O227        O  0.77550380  0.25073892  0.60446556    -0.78000
O228        O  0.74764564  0.25316734  0.74069489    -1.88600
Cd229      Cd  0.79409035  0.28572190  0.79877292     1.59900
O230        O  0.72112803  0.32133186  0.62573572    -0.78000
O231        O  0.78702418  0.24058373  0.86916566    -0.76700
C232        C  0.59781434  0.25421419  0.73561002     0.85900
C233        C  0.74990323  0.10439347  0.70362919     0.85500
O234        O  0.71413175  0.18795873  0.85728526    -0.75600
C235        C  0.89758874  0.27444849  0.72953781     0.86300
O236        O  0.62194299  0.21470338  0.75937588    -0.75700
C237        C  0.74710611  0.29239596  0.59069167     0.86500
C238        C  0.74303738  0.40124177  0.79142027     0.86800
O239        O  0.71510629  0.39026111  0.74859640    -0.78100
O240        O  0.27306179  0.21767710  0.63137873    -0.75600
C241        C  0.39388546  0.25305887  0.75333513     0.85400
O242        O  0.18469266  0.13420427  0.75790723    -0.76800
O243        O  0.27155634  0.25706938  0.88108119    -0.78200
O244        O  0.25038299  0.38605716  0.71936589    -0.78000
O245        O  0.22861377  0.29586193  0.61742721    -0.76700
Zn246      Zn  0.29021497  0.20677152  0.70894253     1.55700
O247        O  0.26440303  0.37572413  0.80887086    -0.78100
Cd248      Cd  0.21620192  0.31350864  0.69881293     1.59700
Cd249      Cd  0.18228152  0.21602268  0.78007111     1.59600
O250        O  0.13336643  0.32142470  0.70638912    -0.78000
O251        O  0.24405870  0.25608848  0.74815158    -1.88600
Cd252      Cd  0.28572536  0.29264975  0.80613915     1.59900
O253        O  0.10827148  0.25305377  0.76090284    -0.78000
O254        O  0.36540388  0.28185704  0.78645505    -0.76700
C255        C  0.22843064  0.10764380  0.74769168     0.85900
C256        C  0.25120059  0.25260615  0.59960731     0.85500
O257        O  0.37196366  0.21994019  0.71981232    -0.75600
C258        C  0.25322390  0.40553844  0.76760459     0.86300
O259        O  0.27174810  0.13078347  0.73111005    -0.75700
C260        C  0.09695393  0.29384264  0.73059566     0.86500
C261        C  0.22941125  0.23128419  0.89638180     0.86800
O262        O  0.19220695  0.21619850  0.86326941    -0.78100
O263        O  0.76323215  0.75013451  0.11512502    -0.75600
C264        C  0.90387680  0.74108852  0.21775014     0.85400
O265        O  0.71530862  0.61648037  0.25288340    -0.76800
O266        O  0.80232609  0.75038534  0.37815874    -0.78200
O267        O  0.74292383  0.88557713  0.24370154    -0.78000
O268        O  0.70657543  0.81924882  0.13423675    -0.76700
Zn269      Zn  0.78734621  0.71372912  0.18409981     1.55700
O270        O  0.81702313  0.86515522  0.29343288    -0.78100
Cd271      Cd  0.70561027  0.81331530  0.22090218     1.59700
Cd272      Cd  0.70887492  0.69616014  0.28549520     1.59600
O273        O  0.62428715  0.80716345  0.24972514    -0.78000
O274        O  0.75420123  0.75076669  0.24640122    -1.88600
Cd275      Cd  0.81321555  0.77893417  0.29716727     1.59900
O276        O  0.62873122  0.72241352  0.28295419    -0.78000
O277        O  0.88905446  0.75749318  0.26522826    -0.76700
C278        C  0.74447408  0.59987002  0.21272212     0.85900
C279        C  0.73513625  0.79143732  0.10020076     0.85500
O280        O  0.86985360  0.72309190  0.18281468    -0.75600
C281        C  0.78717149  0.89946179  0.26759720     0.86300
O282        O  0.77195475  0.63295625  0.18376648    -0.75700
C283        C  0.60153128  0.76516456  0.27022972     0.86500
C284        C  0.76593120  0.71866028  0.39763716     0.86800
O285        O  0.73053716  0.69546543  0.36726738    -0.78100
O286        O  0.31344315  0.78770035  0.14270925    -0.75600
C287        C  0.21982624  0.89763465  0.25429221     0.85400
O288        O  0.36991338  0.73083167  0.31702576    -0.76800
O289        O  0.18097291  0.77087720  0.37612642    -0.78200
O290        O  0.13747061  0.71098010  0.18404321    -0.78000
O291        O  0.26391603  0.71317927  0.12804080    -0.76700
Zn292      Zn  0.29872506  0.80338864  0.22519317     1.55700
O293        O  0.11597466  0.76340565  0.25602601    -0.78100
Cd294      Cd  0.22199973  0.69800996  0.19957852     1.59700
Cd295      Cd  0.28826697  0.71005589  0.31773242     1.59600
O296        O  0.24076013  0.61704528  0.22032839    -0.78000
O297        O  0.24987278  0.74964299  0.25786353    -1.88600
Cd298      Cd  0.18635353  0.78608109  0.29379439     1.59900
O299        O  0.28518219  0.62913478  0.29949845    -0.78000
O300        O  0.18761510  0.87012265  0.28393857    -0.76700
C301        C  0.39693858  0.76746325  0.29214384     0.85900
C302        C  0.29747038  0.74903627  0.11148411     0.85500
O303        O  0.26179159  0.87636026  0.23139980    -0.75600
C304        C  0.10286902  0.73883775  0.21200376     0.86300
O305        O  0.37392169  0.80310106  0.26181880    -0.75700
C306        C  0.26631319  0.59846176  0.26196690     0.86500
C307        C  0.21118716  0.74610216  0.41048592     0.86800
O308        O  0.25405068  0.72005952  0.39585028    -0.78100
O309        O  0.64185446  0.17931594  0.22855474    -0.75600
C310        C  0.75686084  0.20596024  0.08789599     0.85400
O311        O  0.81843368  0.13094857  0.29299846    -0.76800
O312        O  0.88255637  0.28830233  0.19838640    -0.78200
O313        O  0.70638620  0.37639712  0.23389536    -0.78000
O314        O  0.62170306  0.26156249  0.26309025    -0.76700
Zn315      Zn  0.71969697  0.18375723  0.20374050     1.55700
O316        O  0.77494401  0.36244133  0.17499543    -0.78100
Cd317      Cd  0.70012804  0.29694715  0.26831226     1.59700
Cd318      Cd  0.80676774  0.21749887  0.29709672     1.59600
O319        O  0.71733125  0.30635082  0.35056432    -0.78000
O320        O  0.75608176  0.24488569  0.23758012    -1.88600
Cd321      Cd  0.79934307  0.28201788  0.17957244     1.59900
O322        O  0.78395707  0.24833395  0.37466378    -0.78000
O323        O  0.78945375  0.24233781  0.10565334    -0.76700
C324        C  0.79632982  0.09913165  0.25783365     0.85900
C325        C  0.60748660  0.21371751  0.24763676     0.85500
O326        O  0.72221137  0.18326424  0.11920597    -0.75600
C327        C  0.74160716  0.39427623  0.19977069     0.86300
O328        O  0.75981026  0.11642944  0.22498563    -0.75700
C329        C  0.74858587  0.28514869  0.38667678     0.86500
C330        C  0.90525232  0.27872402  0.24430202     0.86800
O331        O  0.88055257  0.25377574  0.28262084    -0.78100
N332        N  0.09837978  0.99238989  0.51380070    -0.33800
N333        N  0.01333163  0.99718468  0.59985357    -0.54300
N334        N  0.92911471  0.99964159  0.51519121    -0.33700
N335        N  0.01318406  0.00046252  0.42974823    -0.54300
C336        C  0.13005933  0.99904398  0.55906061     0.29800
C337        C  0.12997595  0.00076189  0.46874397     0.29800
C338        C  0.89798725  0.00909819  0.56016020     0.29800
C339        C  0.89763966  0.00976928  0.47066211     0.29800
C340        C  0.05776447  0.98698808  0.63145045     0.38500
C341        C  0.96862935  0.99029763  0.63195376     0.38500
C342        C  0.05712774  0.99212412  0.39685559     0.38500
C343        C  0.96816707  0.99417939  0.39798305     0.38500
C344        C  0.18289950  0.01063480  0.54236863    -0.19000
C345        C  0.18283328  0.01166981  0.48570047    -0.19000
C346        C  0.84599918  0.02534435  0.54373002    -0.19000
C347        C  0.84579548  0.02559879  0.48743150    -0.19000
C348        C  0.04098317  0.97387999  0.68409604    -0.20100
C349        C  0.98473252  0.97592323  0.68435200    -0.20100
C350        C  0.03970422  0.98122955  0.34383946    -0.20100
C351        C  0.98366510  0.98244113  0.34459499    -0.20100
C352        C  0.11319744  0.99280549  0.61478775    -0.15400
C353        C  0.11277313  0.99680214  0.41289135    -0.15400
C354        C  0.91327125  0.00162897  0.41542173    -0.15400
C355        C  0.91369725  0.99942637  0.61529175    -0.15400
H356        H  0.21807105  0.01740562  0.56831034     0.17500
H357        H  0.21785110  0.01943462  0.45993151     0.17500
H358        H  0.81129256  0.03516764  0.56947090     0.17500
H359        H  0.81110205  0.03559277  0.46177462     0.17500
H360        H  0.06660954  0.96407194  0.71887532     0.15800
H361        H  0.95869578  0.96807817  0.71921367     0.15800
H362        H  0.06468157  0.97316101  0.30811419     0.15800
H363        H  0.95736451  0.97571394  0.30961458     0.15800
H364        H  0.05874274  0.97834932  0.51370525     0.29000
H365        H  0.96715789  0.98112745  0.51473114     0.29000
N366        N  0.19865633  0.99830137  0.27029617    -0.00600
C367        C  0.20027232  0.04112014  0.23486413     0.02000
C368        C  0.20572763  0.02271240  0.18150078    -0.20900
C369        C  0.20935416  0.96746575  0.18349702    -0.21100
C370        C  0.20550922  0.95334365  0.23791610     0.01900
H371        H  0.21159130  0.04731877  0.14527065     0.15700
H372        H  0.21760685  0.94050459  0.14917719     0.15700
O373        O  0.25012635  0.37987867  0.21655025    -0.75600
C374        C  0.24471142  0.24309859  0.09745026     0.85400
O375        O  0.12019695  0.24796716  0.27476757    -0.76800
O376        O  0.25370152  0.11721412  0.21836674    -0.78200
O377        O  0.38817733  0.24573257  0.28254154    -0.78000
O378        O  0.31216471  0.36337548  0.28149585    -0.76700
Zn379      Zn  0.21829830  0.30526649  0.20180527     1.55700
O380        O  0.36988942  0.18741677  0.21489165    -0.78100
Cd381      Cd  0.30993852  0.28067160  0.29293393     1.59700
Cd382      Cd  0.19364911  0.21230134  0.29095872     1.59600
O383        O  0.28631521  0.27231862  0.37228886    -0.78000
O384        O  0.25171973  0.24835218  0.24636944    -1.88600
Cd385      Cd  0.28727500  0.19127794  0.20123741     1.59900
O386        O  0.20712746  0.22730908  0.37211167    -0.78000
O387        O  0.27219607  0.20445972  0.11890264    -0.76700
C388        C  0.10404761  0.28819701  0.24614441     0.85900
C389        C  0.28455062  0.39617227  0.25197601     0.85500
O390        O  0.22589131  0.28308693  0.12504359    -0.75600
C391        C  0.40356075  0.21023904  0.24731587     0.86300
O392        O  0.13620176  0.31418356  0.21497416    -0.75700
C393        C  0.24603983  0.25093268  0.39677697     0.86500
C394        C  0.21477893  0.09805495  0.24685483     0.86800
O395        O  0.18651321  0.12793853  0.27898956    -0.78100
N396        N  0.00457407  0.30150626  0.22318541    -0.00600
C397        C  0.96070736  0.29809987  0.25728684     0.02000
C398        C  0.97655618  0.30438125  0.31124163    -0.20900
C399        C  0.03165396  0.31064396  0.31102360    -0.21100
C400        C  0.04826902  0.30773660  0.25703487     0.01900
H401        H  0.95118801  0.30090708  0.34736008     0.15700
H402        H  0.05764571  0.31106919  0.34693125     0.15700
N403        N  0.25337204  0.22174561  0.99637814    -0.00600
C404        C  0.21726005  0.22766708  0.95450585     0.02000
C405        C  0.16764735  0.24745020  0.97304492    -0.20900
C406        C  0.17322763  0.25559576  0.02783800    -0.21100
C407        C  0.22572822  0.23951390  0.04112038     0.01900
H408        H  0.13252849  0.25896144  0.94858628     0.15700
H409        H  0.14237940  0.27210475  0.05517569     0.15700
N410        N  0.50558373  0.20177952  0.27026044    -0.00600
C411        C  0.54976313  0.20226314  0.23595961     0.02000
C412        C  0.53401991  0.20044918  0.18180852    -0.20900
C413        C  0.47865639  0.19972256  0.18135473    -0.21100
C414        C  0.46194730  0.20113820  0.23533335     0.01900
H415        H  0.56025500  0.20254521  0.14617955     0.15700
H416        H  0.45303484  0.20116343  0.14522837     0.15700
N417        N  0.81201117  0.99968148  0.28421423    -0.00600
C418        C  0.80861754  0.95381749  0.25253410     0.02000
C419        C  0.81092026  0.96712193  0.19776280    -0.20900
C420        C  0.81508749  0.02238947  0.19500249    -0.21100
C421        C  0.81478350  0.04197874  0.24822176     0.01900
H422        H  0.80524816  0.93977965  0.16330177     0.15700
H423        H  0.81263628  0.04629247  0.15787238     0.15700
N424        N  0.73153007  0.18998795  0.98781001    -0.00600
C425        C  0.76381184  0.18404543  0.94252578     0.02000
C426        C  0.81747165  0.17531416  0.95791346    -0.20900
C427        C  0.81901802  0.17698901  0.01368674    -0.21100
C428        C  0.76624795  0.18629529  0.03133449     0.01900
H429        H  0.85271993  0.17357647  0.93117336     0.15700
H430        H  0.85553339  0.17606839  0.03869355     0.15700
N431        N  0.72204848  0.49824955  0.19930705    -0.00600
C432        C  0.75523009  0.45316691  0.19729690     0.02000
C433        C  0.80939902  0.46809486  0.20181283    -0.20900
C434        C  0.81036384  0.52338674  0.20708249    -0.21100
C435        C  0.75685457  0.54112264  0.20556905     0.01900
H436        H  0.84464968  0.44117151  0.20332142     0.15700
H437        H  0.84637305  0.54816426  0.21259983     0.15700
N438        N  0.76988223  0.29854149  0.48882818    -0.00600
C439        C  0.73605820  0.29937173  0.44427392     0.02000
C440        C  0.68225446  0.30646006  0.45995814    -0.20900
C441        C  0.68178013  0.30861374  0.51563478    -0.21100
C442        C  0.73527483  0.30295817  0.53246998     0.01900
H443        H  0.64661244  0.30651290  0.43369166     0.15700
H444        H  0.64579495  0.31050536  0.54135339     0.15700
N445        N  0.28398729  0.49871830  0.23814187    -0.00600
C446        C  0.26931824  0.53984923  0.27281545     0.02000
C447        C  0.25929550  0.52036759  0.32479676    -0.20900
C448        C  0.26783252  0.46547198  0.32272360    -0.21100
C449        C  0.28295641  0.45318697  0.26961467     0.01900
H450        H  0.24677799  0.54374740  0.36044001     0.15700
H451        H  0.26149527  0.43706482  0.35592295     0.15700
N452        N  0.00321686  0.71991844  0.19413273    -0.00600
C453        C  0.95981498  0.75441001  0.20041629     0.02000
C454        C  0.97649785  0.80788036  0.20048901    -0.20900
C455        C  0.03178982  0.80678460  0.19392237    -0.21100
C456        C  0.04781153  0.75251685  0.19114725     0.01900
H457        H  0.95149221  0.84370974  0.20827448     0.15700
H458        H  0.05834331  0.84171485  0.19780810     0.15700
N459        N  0.31396824  0.77600791  0.01251954    -0.00600
C460        C  0.32173837  0.74537842  0.96650294     0.02000
C461        C  0.33258206  0.69183737  0.98044102    -0.20900
C462        C  0.33136262  0.68916580  0.03640732    -0.21100
C463        C  0.31969607  0.74115957  0.05547582     0.01900
H464        H  0.33537184  0.65729713  0.95274860     0.15700
H465        H  0.33362967  0.65219701  0.06044443     0.15700
N466        N  0.50042547  0.78536565  0.29492018    -0.00600
C467        C  0.45497930  0.75565928  0.28271791     0.02000
C468        C  0.46756444  0.71190550  0.24933766    -0.20900
C469        C  0.52208760  0.71367155  0.23997777    -0.21100
C470        C  0.54182933  0.75828654  0.26817345     0.01900
H471        H  0.43943156  0.68247823  0.23228184     0.15700
H472        H  0.54542303  0.68468535  0.21568682     0.15700
N473        N  0.20063724  0.72548622  0.51265645    -0.00600
C474        C  0.20209536  0.75939182  0.46847544     0.02000
C475        C  0.20242832  0.81338057  0.48428784    -0.20900
C476        C  0.20167221  0.81393235  0.53986025    -0.21100
C477        C  0.20095359  0.76016144  0.55666859     0.01900
H478        H  0.20563627  0.84868315  0.45800196     0.15700
H479        H  0.20437050  0.84995697  0.56552255     0.15700
N480        N  0.71260995  0.81363965  0.00042733    -0.00600
C481        C  0.74599323  0.81607366  0.95581184     0.02000
C482        C  0.80005074  0.81757585  0.97216228    -0.20900
C483        C  0.80055794  0.81440163  0.02774918    -0.21100
C484        C  0.74685338  0.81166324  0.04441362     0.01900
H485        H  0.83569741  0.81515924  0.94598696     0.15700
H486        H  0.83653628  0.80978730  0.05317236     0.15700
N487        N  0.23127755  0.26634270  0.49816728    -0.00600
C488        C  0.25330878  0.24018746  0.45409621     0.02000
C489        C  0.29034759  0.20044643  0.46867215    -0.20900
C490        C  0.29225071  0.20090361  0.52388201    -0.21100
C491        C  0.25633455  0.24129535  0.54126485     0.01900
H492        H  0.31418890  0.17445816  0.44162456     0.15700
H493        H  0.31815650  0.17500923  0.54882622     0.15700
N494        N  0.99620366  0.30198091  0.74747239    -0.00600
C495        C  0.95362576  0.28942878  0.71410667     0.02000
C496        C  0.97103791  0.28468645  0.66035221    -0.20900
C497        C  0.02589919  0.29362940  0.66041834    -0.21100
C498        C  0.04041085  0.30308077  0.71412307     0.01900
H499        H  0.94683638  0.27314458  0.62510784     0.15700
H500        H  0.05317451  0.28827286  0.62590786     0.15700
N501        N  0.21934397  0.00464946  0.74423858    -0.00600
C502        C  0.23428473  0.05226471  0.76838831     0.02000
C503        C  0.26550963  0.04309557  0.81443716    -0.20900
C504        C  0.27080037  0.98803131  0.81927224    -0.21100
C505        C  0.24282688  0.96514978  0.77572142     0.01900
H506        H  0.28423447  0.07347719  0.84056217     0.15700
H507        H  0.29409890  0.96688569  0.85047105     0.15700
N508        N  0.49534116  0.23641634  0.72898235    -0.00600
C509        C  0.54035040  0.26372719  0.74689622     0.02000
C510        C  0.52724744  0.30456885  0.78339026    -0.20900
C511        C  0.47248382  0.30350331  0.78935937    -0.21100
C512        C  0.45320783  0.26211945  0.75582702     0.01900
H513        H  0.55505268  0.33188236  0.80417757     0.15700
H514        H  0.44902833  0.33075678  0.81547527     0.15700
N515        N  0.25855350  0.50534153  0.79501416    -0.00600
C516        C  0.22706911  0.54862892  0.78005488     0.02000
C517        C  0.18181785  0.53223362  0.75103911    -0.20900
C518        C  0.18533787  0.47691075  0.74702191    -0.21100
C519        C  0.23259007  0.46130926  0.77397127     0.01900
H520        H  0.15147908  0.55813819  0.73170518     0.15700
H521        H  0.15793743  0.45088720  0.72413976     0.15700
N522        N  0.76997266  0.00180051  0.69443735    -0.00600
C523        C  0.73531045  0.95846473  0.69757561     0.02000
C524        C  0.68172835  0.97619992  0.69438537    -0.20900
C525        C  0.68276853  0.03145770  0.68965750    -0.21100
C526        C  0.73697255  0.04680479  0.69027981     0.01900
H527        H  0.64535921  0.95166123  0.69823895     0.15700
H528        H  0.64733864  0.05819777  0.69004158     0.15700
N529        N  0.99861373  0.74225282  0.80867341    -0.00600
C530        C  0.95503270  0.77406588  0.79425099     0.02000
C531        C  0.97008757  0.82790761  0.78967500    -0.20900
C532        C  0.02445790  0.82993268  0.80080633    -0.21100
C533        C  0.04169799  0.77711953  0.81125602     0.01900
H534        H  0.94455197  0.86188868  0.77710382     0.15700
H535        H  0.04997540  0.86551107  0.79626588     0.15700
N536        N  0.49727605  0.77374066  0.70607246    -0.00600
C537        C  0.45295890  0.74048620  0.70027817     0.02000
C538        C  0.46897482  0.68660012  0.69483508    -0.20900
C539        C  0.52414082  0.68531241  0.69941131    -0.21100
C540        C  0.54082559  0.73847414  0.70722616     0.01900
H541        H  0.44290259  0.65117613  0.69289411     0.15700
H542        H  0.54927428  0.64877897  0.70035252     0.15700
N543        N  0.72156007  0.50302972  0.80676589    -0.00600
C544        C  0.75514044  0.45824995  0.80712873     0.02000
C545        C  0.80911873  0.47320797  0.81271728    -0.20900
C546        C  0.80993103  0.52859632  0.81494299    -0.21100
C547        C  0.75645530  0.54606927  0.81047670     0.01900
H548        H  0.84464234  0.44663406  0.81118885     0.15700
H549        H  0.84614595  0.55367151  0.81515327     0.15700
N550        N  0.78576739  0.70337164  0.50040500    -0.00600
C551        C  0.75410425  0.71878433  0.45688437     0.02000
C552        C  0.70465268  0.73979469  0.47445993    -0.20900
C553        C  0.70517999  0.73813325  0.53013958    -0.21100
C554        C  0.75485602  0.71605238  0.54526065     0.01900
H555        H  0.67197560  0.75587135  0.44919144     0.15700
H556        H  0.67319237  0.75296134  0.55711385     0.15700
C557        C  0.83966694  0.00065950  0.33481278    -0.10400
C558        C  0.87049141  0.00147089  0.37367367    -0.12000
C559        C  0.15337132  0.99853753  0.36823491    -0.10400
C560        C  0.17822952  0.99907560  0.32480741    -0.12000
C561        C  0.82548886  0.99953360  0.67871467    -0.10400
C562        C  0.86955994  0.99872620  0.65579548    -0.12000
C563        C  0.18589570  0.99844951  0.69714978    -0.10400
C564        C  0.15476189  0.99481151  0.65830800    -0.12000
C565        C  0.34537546  0.87728714  0.01644116    -0.10400
C566        C  0.32502541  0.83234049  0.01514799    -0.12000
C567        C  0.30349910  0.19229849  0.99587809    -0.10400
C568        C  0.34349341  0.16240432  0.99754295    -0.12000
C569        C  0.66234801  0.84180565  0.00237702    -0.10400
C570        C  0.62402281  0.87329780  0.00389081    -0.12000
C571        C  0.67556949  0.17612495  0.98995687    -0.10400
C572        C  0.63106941  0.15443729  0.99213513    -0.12000
C573        C  0.99411813  0.35841997  0.83910538    -0.10400
C574        C  0.99372148  0.32921220  0.79866951    -0.12000
C575        C  0.00241686  0.34804050  0.12669345    -0.10400
C576        C  0.00293251  0.32196029  0.16904356    -0.12000
C577        C  0.99588785  0.64490373  0.85367337    -0.10400
C578        C  0.99734415  0.68821358  0.82925562    -0.12000
C579        C  0.99827574  0.63033000  0.13614378    -0.10400
C580        C  0.00025618  0.66925309  0.16685808    -0.12000
C581        C  0.31342409  0.50408096  0.18855621    -0.10400
C582        C  0.34362177  0.50801655  0.14918480    -0.12000
C583        C  0.62948353  0.50720871  0.14594565    -0.10400
C584        C  0.67012864  0.50235068  0.17422134    -0.12000
C585        C  0.30470502  0.50576620  0.83001778    -0.10400
C586        C  0.34204781  0.50623583  0.86296722    -0.12000
C587        C  0.62901283  0.50589498  0.86163733    -0.10400
C588        C  0.66947262  0.50402931  0.83237234    -0.12000
C589        C  0.15013053  0.63086832  0.51031783    -0.10400
C590        C  0.17710289  0.67263142  0.51196078    -0.12000
C591        C  0.15436332  0.34373552  0.49818103    -0.10400
C592        C  0.19018204  0.30824426  0.49848488    -0.12000
C593        C  0.86549761  0.34723661  0.49089093    -0.10400
C594        C  0.82349469  0.32052796  0.48931808    -0.12000
C595        C  0.86698176  0.63204488  0.50014484    -0.10400
C596        C  0.83089434  0.66668738  0.49954222    -0.12000
C597        C  0.49459155  0.15680253  0.65455207    -0.10400
C598        C  0.49383813  0.19328934  0.68932129    -0.12000
C599        C  0.50511609  0.17793279  0.32338757    -0.10400
C600        C  0.50384191  0.15065639  0.36532277    -0.12000
C601        C  0.50475993  0.86520834  0.36826659    -0.10400
C602        C  0.50389203  0.82888398  0.33362497    -0.12000
C603        C  0.50109280  0.86814538  0.65474849    -0.10400
C604        C  0.49961159  0.82671079  0.68254450    -0.12000
loop_ 
_geom_bond_atom_site_label_1 
_geom_bond_atom_site_label_2 
_geom_bond_distance 
_geom_bond_site_symmetry_2 
_ccdc_geom_bond_type 
N1            C6   1.363   1_545  A
N1            C5   1.360       .  A
N1           H33   1.034       .  S
N2            C9   1.361       .  A
N2           C10   1.362       .  A
N3            C8   1.362   1_545  A
N3            C7   1.363       .  A
N3           H34   1.031       .  S
N4           C11   1.361       .  A
N4           C12   1.359       .  A
C5           C13   1.390       .  A
C5           C21   1.432       .  A
C6           C22   1.428       .  A
C6           C14   1.386       .  A
C7           C15   1.389       .  A
C7           C24   1.437       .  A
C8           C23   1.435       .  A
C8           C16   1.388       .  A
C9           C21   1.433       .  A
C9           C17   1.386       .  A
C10          C24   1.435       .  A
C10          C18   1.388       .  A
C11          C19   1.385       .  A
C11          C22   1.427       .  A
C12          C20   1.390       .  A
C12          C23   1.432       .  A
C13          C14   1.378   1_545  A
C13          H25   1.082       .  S
C14          H26   1.082       .  S
C15          C16   1.383   1_545  A
C15          H27   1.082       .  S
C16          H28   1.082       .  S
C17          C18   1.380       .  A
C17          H29   1.082       .  S
C18          H30   1.082       .  S
C19          C20   1.375       .  A
C19          H31   1.082       .  S
C20          H32   1.082       .  S
C21         C600   1.482       .  S
C22         C601   1.483       .  S
C23         C603   1.481       .  S
C24         C597   1.490       .  S
N35          C40   1.359   1_455  A
N35          C39   1.358       .  A
N35          H67   1.037       .  S
N36          C43   1.361       .  A
N36          C44   1.361       .  A
N37          C42   1.362   1_455  A
N37          C41   1.363       .  A
N37          H68   1.035       .  S
N38          C45   1.360       .  A
N38          C46   1.358       .  A
C39          C47   1.390       .  A
C39          C55   1.426       .  A
C40          C56   1.422       .  A
C40          C48   1.386       .  A
C41          C49   1.388       .  A
C41          C58   1.435       .  A
C42          C57   1.433       .  A
C42          C50   1.387       .  A
C43          C55   1.428       .  A
C43          C51   1.386       .  A
C44          C58   1.431       .  A
C44          C52   1.387       .  A
C45          C53   1.386       .  A
C45          C56   1.424       .  A
C46          C54   1.389       .  A
C46          C57   1.429       .  A
C47          C48   1.377   1_455  A
C47          H59   1.082       .  S
C48          H60   1.083       .  S
C49          C50   1.383   1_455  A
C49          H61   1.082       .  S
C50          H62   1.082       .  S
C51          C52   1.380       .  A
C51          H63   1.082       .  S
C52          H64   1.082       .  S
C53          C54   1.375       .  A
C53          H65   1.082       .  S
C54          H66   1.082       .  S
C55         C589   1.478       .  S
C56         C595   1.475       .  S
C57         C593   1.479       .  S
C58         C591   1.489       .  S
N69          C74   1.360       .  A
N69          C73   1.357       .  A
N69         H101   1.030       .  S
N70          C77   1.357   1_554  A
N70          C78   1.358       .  A
N71          C76   1.359       .  A
N71          C75   1.359       .  A
N71         H102   1.034       .  S
N72          C79   1.358   1_554  A
N72          C80   1.356       .  A
C73          C81   1.389       .  A
C73          C89   1.428       .  A
C74          C90   1.428       .  A
C74          C82   1.387       .  A
C75          C83   1.389       .  A
C75          C92   1.427       .  A
C76          C91   1.425       .  A
C76          C84   1.387       .  A
C77          C89   1.428       .  A
C77          C85   1.389       .  A
C78          C92   1.424       .  A
C78          C86   1.386       .  A
C79          C87   1.388       .  A
C79          C90   1.428       .  A
C80          C88   1.388       .  A
C80          C91   1.425       .  A
C81          C82   1.380       .  A
C81          H93   1.082       .  S
C82          H94   1.082       .  S
C83          C84   1.377       .  A
C83          H95   1.082       .  S
C84          H96   1.082       .  S
C85          C86   1.376   1_556  A
C85          H97   1.082       .  S
C86          H98   1.082       .  S
C87          C88   1.374   1_556  A
C87          H99   1.082       .  S
C88         H100   1.082       .  S
C89         C586   1.470       .  S
C90         C587   1.476       .  S
C91         C583   1.468       .  S
C92         C582   1.470       .  S
N103        C108   1.357   1_655  A
N103        C107   1.357   1_655  A
N103        H135   1.037       .  S
N104        C111   1.359   1_556  A
N104        C112   1.357       .  A
N105        C110   1.362       .  A
N105        C109   1.357       .  A
N105        H136   1.034       .  S
N106        C113   1.355   1_556  A
N106        C114   1.356       .  A
C107        C115   1.389       .  A
C107        C123   1.422       .  A
C108        C124   1.417   1_455  A
C108        C116   1.386       .  A
C109        C117   1.390   1_655  A
C109        C126   1.430       .  A
C110        C125   1.428       .  A
C110        C118   1.386   1_655  A
C111        C123   1.422   1_655  A
C111        C119   1.385       .  A
C112        C126   1.426       .  A
C112        C120   1.389       .  A
C113        C121   1.387       .  A
C113        C124   1.419       .  A
C114        C122   1.388       .  A
C114        C125   1.421       .  A
C115        C116   1.375       .  A
C115        H127   1.082       .  S
C116        H128   1.082       .  S
C117        C118   1.381       .  A
C117        H129   1.082       .  S
C118        H130   1.082       .  S
C119        C120   1.378   1_554  A
C119        H131   1.082       .  S
C120        H132   1.082       .  S
C121        C122   1.372   1_554  A
C121        H133   1.082       .  S
C122        H134   1.082       .  S
C123        C575   1.469       .  S
C124        C579   1.461       .  S
C125        C577   1.474       .  S
C126        C573   1.468       .  S
N137        C142   1.355       .  A
N137        C141   1.352       .  A
N137        H169   1.038   1_554  S
N138        C145   1.358   1_545  A
N138        C146   1.355   1_554  A
N139        C144   1.360   1_556  A
N139        C143   1.358   1_556  A
N139        H170   1.038       .  S
N140        C147   1.355   1_544  A
N140        C148   1.354   1_554  A
C141        C149   1.390       .  A
C141        C157   1.416       .  A
C142        C158   1.411       .  A
C142        C150   1.385       .  A
C143        C151   1.388       .  A
C143        C160   1.427       .  A
C144        C159   1.426   1_554  A
C144        C152   1.387       .  A
C145        C157   1.418       .  A
C145        C153   1.384   1_554  A
C146        C160   1.424   1_556  A
C146        C154   1.389       .  A
C147        C155   1.385       .  A
C147        C158   1.416   1_556  A
C148        C156   1.390       .  A
C148        C159   1.420       .  A
C149        C150   1.374       .  A
C149        H161   1.082       .  S
C150        H162   1.083       .  S
C151        C152   1.384       .  A
C151        H163   1.082       .  S
C152        H164   1.082       .  S
C153        C154   1.377   1_565  A
C153        H165   1.082       .  S
C154        H166   1.082       .  S
C155        C156   1.372   1_565  A
C155        H167   1.082       .  S
C156        H168   1.082       .  S
C157        C565   1.461       .  S
C158        C570   1.459       .  S
C159        C572   1.468       .  S
C160        C568   1.470   1_554  S
O171        C187   1.274       .  A
O171       Zn177   2.009       .  S
C172        O188   1.272       .  A
C172        O185   1.278       .  A
C172        C530   1.470       .  S
O173        C186   1.280       .  A
O173       Cd180   2.138       .  S
O174        C192   1.277       .  A
O174       Cd183   2.122       .  S
O175        C189   1.275       .  A
O175       Cd179   2.072       .  S
O176        C187   1.275       .  A
O176       Cd179   2.099       .  S
Zn177       O188   2.035       .  S
Zn177       O190   1.980       .  S
Zn177       O182   1.937       .  S
O178        C189   1.279       .  A
O178       Cd183   2.104       .  S
Cd179       O181   2.041       .  S
Cd179       O182   1.991       .  S
Cd180       O184   2.127       .  S
Cd180       O193   2.060       .  S
Cd180       O182   2.035       .  S
O181        C191   1.274       .  A
O182       Cd183   2.020       .  S
Cd183       O185   2.063       .  S
O184        C191   1.279       .  A
C186        O190   1.272       .  A
C186        C481   1.485       .  S
C187        C547   1.475       .  S
C189        C554   1.472       .  S
C191        C540   1.482       .  S
C192        O193   1.277       .  A
C192        C523   1.485       .  S
O194        C210   1.272       .  A
O194       Zn200   1.983       .  S
C195        O211   1.272       .  A
C195        O208   1.276       .  A
C195        C505   1.468       .  S
O196        C209   1.275       .  A
O196       Cd203   2.115       .  S
O197        C215   1.276       .  A
O197       Cd206   2.106       .  S
O198        C212   1.276       .  A
O198       Cd202   2.068       .  S
O199        C210   1.274       .  A
O199       Cd202   2.105       .  S
Zn200       O211   2.032       .  S
Zn200       O213   1.991       .  S
Zn200       O205   1.924       .  S
O201        C212   1.278       .  A
O201       Cd206   2.109       .  S
Cd202       O204   2.048       .  S
Cd202       O205   2.014       .  S
Cd203       O207   2.071       .  S
Cd203       O216   2.070       .  S
Cd203       O205   2.000       .  S
O204        C214   1.271       .  A
O205       Cd206   2.007       .  S
Cd206       O208   2.043       .  S
O207        C214   1.277       .  A
C209        O213   1.273       .  A
C209        C477   1.478       .  S
C210        C533   1.473       .  S
C212        C460   1.477       .  S
C214        C516   1.452       .  S
C215        O216   1.278       .  A
C215        C537   1.481       .  S
O217        C233   1.273       .  A
O217       Zn223   1.987       .  S
C218        O234   1.276       .  A
C218        O231   1.277       .  A
C218        C425   1.480       .  S
O219        C232   1.274       .  A
O219       Cd226   2.050       .  S
O220        C238   1.273       .  A
O220       Cd229   2.059       .  S
O221        C235   1.276       .  A
O221       Cd225   2.045       .  S
O222        C233   1.279       .  A
O222       Cd225   2.136       .  S
Zn223       O234   2.071       .  S
Zn223       O236   2.016       .  S
Zn223       O228   1.950       .  S
O224        C235   1.275       .  A
O224       Cd229   2.092       .  S
Cd225       O227   2.101       .  S
Cd225       O228   2.019       .  S
Cd226       O230   2.067       .  S
Cd226       O239   2.119       .  S
Cd226       O228   1.998       .  S
O227        C237   1.277       .  A
O228       Cd229   1.986       .  S
Cd229       O231   2.056       .  S
O230        C237   1.276       .  A
C232        O236   1.273       .  A
C232        C509   1.451       .  S
C233        C526   1.484       .  S
C235        C495   1.473       .  S
C237        C442   1.474       .  S
C238        O239   1.278       .  A
C238        C544   1.480       .  S
O240        C256   1.273       .  A
O240       Zn246   1.959       .  S
C241        O257   1.272       .  A
C241        O254   1.275       .  A
C241        C512   1.472       .  S
O242        C255   1.273       .  A
O242       Cd249   2.076       .  S
O243        C261   1.272       .  A
O243       Cd252   2.061       .  S
O244        C258   1.271       .  A
O244       Cd248   2.033       .  S
O245        C256   1.267       .  A
O245       Cd248   2.054       .  S
Zn246       O257   2.047       .  S
Zn246       O259   1.998       .  S
Zn246       O251   1.904       .  S
O247        C258   1.276       .  A
O247       Cd252   2.099       .  S
Cd248       O250   2.044       .  S
Cd248       O251   1.974       .  S
Cd249       O253   2.075       .  S
Cd249       O262   2.046       .  S
Cd249       O251   1.973       .  S
O250        C260   1.271       .  A
O251       Cd252   1.963       .  S
Cd252       O254   2.025       .  S
O253        C260   1.275       .  A
C255        O259   1.274       .  A
C255        C502   1.457       .  S
C256        C491   1.455       .  S
C258        C519   1.462       .  S
C260        C498   1.458       .  S
C261        O262   1.274       .  A
C261        C404   1.453       .  S
O263        C279   1.274       .  A
O263       Zn269   1.996       .  S
C264        O280   1.272       .  A
C264        O277   1.277       .  A
C264        C453   1.473       .  S
O265        C278   1.277       .  A
O265       Cd272   2.111       .  S
O266        C284   1.281       .  A
O266       Cd275   2.118       .  S
O267        C281   1.278       .  A
O267       Cd271   2.074       .  S
O268        C279   1.278       .  A
O268       Cd271   2.122       .  S
Zn269       O280   2.035       .  S
Zn269       O282   2.019       .  S
Zn269       O274   1.943       .  S
O270        C281   1.278       .  A
O270       Cd275   2.119       .  S
Cd271       O273   2.119       .  S
Cd271       O274   2.033       .  S
Cd272       O276   2.061       .  S
Cd272       O285   2.066       .  S
Cd272       O274   1.993       .  S
O273        C283   1.279       .  A
O274       Cd275   2.027       .  S
Cd275       O277   2.077       .  S
O276        C283   1.277       .  A
C278        O282   1.275       .  A
C278        C435   1.479       .  S
C279        C484   1.481       .  S
C281        C418   1.484       .  S
C283        C470   1.474       .  S
C284        O285   1.276       .  A
C284        C551   1.475       .  S
O286        C302   1.278       .  A
O286       Zn292   2.080       .  S
C287        O303   1.277       .  A
C287        O300   1.271       .  A
C287        C370   1.465       .  S
O288        C301   1.276       .  A
O288       Cd295   2.067       .  S
O289        C307   1.272       .  A
O289       Cd298   2.051       .  S
O290        C304   1.280       .  A
O290       Cd294   2.126       .  S
O291        C302   1.275       .  A
O291       Cd294   2.063       .  S
Zn292       O303   2.003       .  S
Zn292       O305   2.047       .  S
Zn292       O297   1.959       .  S
O293        C304   1.272       .  A
O293       Cd298   2.035       .  S
Cd294       O296   2.098       .  S
Cd294       O297   2.023       .  S
Cd295       O299   2.033       .  S
Cd295       O308   2.096       .  S
Cd295       O297   1.990       .  S
O296        C306   1.277       .  A
O297       Cd298   1.990       .  S
Cd298       O300   2.076       .  S
O299        C306   1.272       .  A
C301        O305   1.275       .  A
C301        C467   1.466       .  S
C302        C463   1.483       .  S
C304        C456   1.478       .  S
C306        C446   1.464       .  S
C307        O308   1.275       .  A
C307        C474   1.468       .  S
O309        C325   1.274       .  A
O309       Zn315   2.004       .  S
C310        O326   1.275       .  A
C310        O323   1.276       .  A
C310        C428   1.478       .  S
O311        C324   1.280       .  A
O311       Cd318   2.141       .  S
O312        C330   1.273       .  A
O312       Cd321   2.095       .  S
O313        C327   1.281       .  A
O313       Cd317   2.131       .  S
O314        C325   1.281       .  A
O314       Cd317   2.117       .  S
Zn315       O326   2.065       .  S
Zn315       O328   1.985       .  S
Zn315       O320   1.932       .  S
O316        C327   1.276       .  A
O316       Cd321   2.059       .  S
Cd317       O319   2.064       .  S
Cd317       O320   2.008       .  S
Cd318       O322   2.110       .  S
Cd318       O331   2.052       .  S
Cd318       O320   2.024       .  S
O319        C329   1.277       .  A
O320       Cd321   1.996       .  S
Cd321       O323   2.062       .  S
O322        C329   1.279       .  A
C324        O328   1.272       .  A
C324        C421   1.486       .  S
C325        C411   1.471       .  S
C327        C432   1.486       .  S
C329        C439   1.479       .  S
C330        O331   1.275       .  A
C330        C397   1.476       .  S
N332        C337   1.362   1_565  A
N332        C336   1.360       .  A
N332        H364   1.032       .  S
N333        C340   1.356       .  A
N333        C341   1.359   1_455  A
N334        C339   1.355   1_565  A
N334        C338   1.355   1_565  A
N334        H365   1.033       .  S
N335        C342   1.357   1_545  A
N335        C343   1.357   1_445  A
C336        C344   1.389   1_565  A
C336        C352   1.431       .  A
C337        C353   1.430   1_545  A
C337        C345   1.387       .  A
C338        C346   1.390       .  A
C338        C355   1.420   1_545  A
C339        C354   1.415       .  A
C339        C347   1.386       .  A
C340        C352   1.426       .  A
C340        C348   1.389       .  A
C341        C355   1.421       .  A
C341        C349   1.385       .  A
C342        C350   1.388       .  A
C342        C353   1.423       .  A
C343        C351   1.386       .  A
C343        C354   1.420   1_565  A
C344        C345   1.384       .  A
C344        H356   1.082       .  S
C345        H357   1.082       .  S
C346        C347   1.375       .  A
C346        H358   1.082       .  S
C347        H359   1.082       .  S
C348        C349   1.378   1_455  A
C348        H360   1.082       .  S
C349        H361   1.082       .  S
C350        C351   1.372   1_455  A
C350        H362   1.082       .  S
C351        H363   1.082       .  S
C352        C564   1.472       .  S
C353        C559   1.477       .  S
C354        C558   1.461       .  S
C355        C562   1.465       .  S
N366        C370   1.363       .  A
N366        C367   1.364   1_565  A
N366        C560   1.422       .  S
C367        C368   1.383       .  A
C367        C394   1.471       .  S
C368        C369   1.358   1_545  A
C368        H371   1.083       .  S
C369        C370   1.378       .  A
C369        H372   1.083       .  S
O373        C389   1.273       .  A
O373       Zn379   2.025       .  S
C374        O390   1.271       .  A
C374        O387   1.272       .  A
C374        C407   1.454       .  S
O375        C388   1.272       .  A
O375       Cd382   2.033       .  S
O376        C394   1.274       .  A
O376       Cd385   2.044       .  S
O377        C391   1.276       .  A
O377       Cd381   2.107       .  S
O378        C389   1.272       .  A
O378       Cd381   2.049       .  S
Zn379       O390   1.958       .  S
Zn379       O392   2.046       .  S
Zn379       O384   1.948       .  S
O380        C391   1.274       .  A
O380       Cd385   2.052       .  S
Cd381       O383   2.034       .  S
Cd381       O384   1.990       .  S
Cd382       O386   2.041       .  S
Cd382       O395   2.096       .  S
Cd382       O384   2.005       .  S
O383        C393   1.271       .  A
O384       Cd385   1.974       .  S
Cd385       O387   2.070       .  S
O386        C393   1.269       .  A
C388        O392   1.272       .  A
C388        C400   1.468       .  S
C389        C449   1.461       .  S
C391        C414   1.474       .  S
C393        C488   1.436       .  S
C394        O395   1.272       .  A
N396        C400   1.361       .  A
N396        C397   1.363   1_455  A
N396        C576   1.416       .  S
C397        C398   1.382       .  A
C398        C399   1.359   1_655  A
C398        H401   1.083       .  S
C399        C400   1.381       .  A
C399        H402   1.083       .  S
N403        C407   1.354   1_556  A
N403        C404   1.359       .  A
N403        C567   1.419       .  S
C404        C405   1.380       .  A
C405        C406   1.359   1_556  A
C405        H408   1.083       .  S
C406        C407   1.381       .  A
C406        H409   1.083       .  S
N410        C414   1.367       .  A
N410        C411   1.368       .  A
N410        C599   1.425       .  S
C411        C412   1.378       .  A
C412        C413   1.356       .  A
C412        H415   1.083       .  S
C413        C414   1.380       .  A
C413        H416   1.083       .  S
N417        C421   1.364   1_565  A
N417        C418   1.365       .  A
N417        C557   1.409   1_565  S
C418        C419   1.379       .  A
C419        C420   1.362   1_565  A
C419        H422   1.083       .  S
C420        C421   1.383       .  A
C420        H423   1.083       .  S
N424        C428   1.364   1_556  A
N424        C425   1.366       .  A
N424        C571   1.416       .  S
C425        C426   1.382       .  A
C426        C427   1.363   1_556  A
C426        H429   1.083       .  S
C427        C428   1.379       .  A
C427        H430   1.083       .  S
N431        C435   1.367       .  A
N431        C432   1.367       .  A
N431        C584   1.414       .  S
C432        C433   1.383       .  A
C433        C434   1.362       .  A
C433        H436   1.083       .  S
C434        C435   1.378       .  A
C434        H437   1.083       .  S
N438        C442   1.365       .  A
N438        C439   1.367       .  A
N438        C594   1.423       .  S
C439        C440   1.382       .  A
C440        C441   1.360       .  A
C440        H443   1.083       .  S
C441        C442   1.379       .  A
C441        H444   1.083       .  S
N445        C449   1.358       .  A
N445        C446   1.360       .  A
N445        C581   1.416       .  S
C446        C447   1.381       .  A
C447        C448   1.361       .  A
C447        H450   1.083       .  S
C448        C449   1.380       .  A
C448        H451   1.083       .  S
N452        C456   1.361       .  A
N452        C453   1.361   1_455  A
N452        C580   1.409       .  S
C453        C454   1.376       .  A
C454        C455   1.363   1_655  A
C454        H457   1.083       .  S
C455        C456   1.385       .  A
C455        H458   1.083       .  S
N459        C463   1.362       .  A
N459        C460   1.361   1_554  A
N459        C566   1.411       .  S
C460        C461   1.381       .  A
C461        C462   1.369   1_556  A
C461        H464   1.083       .  S
C462        C463   1.383       .  A
C462        H465   1.083       .  S
N466        C470   1.371       .  A
N466        C467   1.367       .  A
N466        C602   1.425       .  S
C467        C468   1.377       .  A
C468        C469   1.356       .  A
C468        H471   1.083       .  S
C469        C470   1.381       .  A
C469        H472   1.083       .  S
N473        C477   1.367       .  A
N473        C474   1.365       .  A
N473        C590   1.422       .  S
C474        C475   1.377       .  A
C475        C476   1.357       .  A
C475        H478   1.083       .  S
C476        C477   1.383       .  A
C476        H479   1.083       .  S
N480        C484   1.363       .  A
N480        C481   1.364   1_554  A
N480        C569   1.407       .  S
C481        C482   1.383       .  A
C482        C483   1.360   1_556  A
C482        H485   1.083       .  S
C483        C484   1.379       .  A
C483        H486   1.083       .  S
N487        C491   1.364       .  A
N487        C488   1.360       .  A
N487        C592   1.432       .  S
C488        C489   1.374       .  A
C489        C490   1.349       .  A
C489        H492   1.083       .  S
C490        C491   1.384       .  A
C490        H493   1.083       .  S
N494        C498   1.355   1_655  A
N494        C495   1.359       .  A
N494        C574   1.416       .  S
C495        C496   1.384       .  A
C496        C497   1.363   1_655  A
C496        H499   1.083       .  S
C497        C498   1.378       .  A
C497        H500   1.082       .  S
N501        C505   1.363   1_545  A
N501        C502   1.358       .  A
N501        C563   1.420   1_545  S
C502        C503   1.378       .  A
C503        C504   1.361   1_545  A
C503        H506   1.083       .  S
C504        C505   1.384       .  A
C504        H507   1.083       .  S
N508        C512   1.370       .  A
N508        C509   1.365       .  A
N508        C598   1.431       .  S
C509        C510   1.374       .  A
C510        C511   1.349       .  A
C510        H513   1.083       .  S
C511        C512   1.387       .  A
C511        H514   1.083       .  S
N515        C519   1.356       .  A
N515        C516   1.358       .  A
N515        C585   1.417       .  S
C516        C517   1.377       .  A
C517        C518   1.361       .  A
C517        H520   1.083       .  S
C518        C519   1.383       .  A
C518        H521   1.083       .  S
N522        C526   1.366       .  A
N522        C523   1.368   1_545  A
N522        C561   1.413   1_545  S
C523        C524   1.381       .  A
C524        C525   1.361   1_565  A
C524        H527   1.083       .  S
C525        C526   1.383       .  A
C525        H528   1.083       .  S
N529        C533   1.364   1_655  A
N529        C530   1.364       .  A
N529        C578   1.420       .  S
C530        C531   1.378       .  A
C531        C532   1.360   1_655  A
C531        H534   1.083       .  S
C532        C533   1.383       .  A
C532        H535   1.083       .  S
N536        C540   1.368       .  A
N536        C537   1.369       .  A
N536        C604   1.424       .  S
C537        C538   1.381       .  A
C538        C539   1.356       .  A
C538        H541   1.083       .  S
C539        C540   1.381       .  A
C539        H542   1.083       .  S
N543        C547   1.366       .  A
N543        C544   1.366       .  A
N543        C588   1.421       .  S
C544        C545   1.381       .  A
C545        C546   1.359       .  A
C545        H548   1.083       .  S
C546        C547   1.379       .  A
C546        H549   1.083       .  S
N550        C554   1.365       .  A
N550        C551   1.368       .  A
N550        C596   1.419       .  S
C551        C552   1.380       .  A
C552        C553   1.360       .  A
C552        H555   1.083       .  S
C553        C554   1.378       .  A
C553        H556   1.083       .  S
C557        C558   1.212       .  T
C559        C560   1.223       .  T
C561        C562   1.216       .  T
C563        C564   1.220       .  T
C565        C566   1.213       .  T
C567        C568   1.219       .  T
C569        C570   1.211       .  T
C571        C572   1.218       .  T
C573        C574   1.217       .  T
C575        C576   1.218       .  T
C577        C578   1.221       .  T
C579        C580   1.212   1_655  T
C581        C582   1.218       .  T
C583        C584   1.216       .  T
C585        C586   1.218       .  T
C587        C588   1.222       .  T
C589        C590   1.223       .  T
C591        C592   1.231       .  T
C593        C594   1.224       .  T
C595        C596   1.221       .  T
C597        C598   1.231       .  T
C599        C600   1.226       .  T
C601        C602   1.226       .  T
C603        C604   1.225       .  T
